 Huron                     SWAT+ Jun 13 2023       MODULAR Rev 2023.60.5.7                                
                                        zmx       usle_k       sumfc       sumul      usle_p     usle_ls        esco        epco     cn3_swf       perco     latq_co   tiledrain 
 sname           hydgrp                 (mm)                    (mm)        (mm)                                                                                     0=notile;1=tile;
172157          B                  2030.0000      0.0000    453.0755    679.6132      1.0000      0.1207      0.6928      0.6935      0.9500      0.1000      0.6930           1
172170          A                  2030.0000      0.0000    466.9246    700.3868      1.0000      0.2669      0.6928      0.6935      0.9500      0.1000      0.6930           1
172149          B                  2030.0000      0.0000    465.8302    698.7454      1.0000      0.1735      0.6928      0.6935      0.9500      0.1000      0.6930           1
172123          C                  2030.0000      0.0000    446.7925    670.1887      1.0000      0.1017      0.6928      0.6935      0.9500      0.1000      0.6930           1
172136          A                  2030.0000      0.0000    451.1321    676.6982      1.0000      0.1796      0.6928      0.6935      0.9500      0.1000      0.6930           1
172151          B                  2030.0000      0.0000    425.3585    638.0377      1.0000      0.1155      0.6928      0.6935      0.9500      0.1000      0.6930           1
172189          A                  2030.0000      0.0000    491.7170    737.5756      1.0000      0.2001      0.6928      0.6935      0.9500      0.1000      0.6930           1
172168          B                  1750.0000      0.0000    428.3019    642.4529      1.0000      0.2448      0.6928      0.6935      0.9500      0.1000      0.6930           1
167978          B                  1520.0000      0.0000    319.6981    479.5472      1.0000      0.1221      0.6928      0.6935      0.9500      0.1000      0.6930           1
172170          A                  2030.0000      0.0000    466.9246    700.3868      1.0000      0.5356      0.6928      0.6935      0.6926      0.6926      0.6930           0
172136          A                  2030.0000      0.0000    451.1321    676.6982      1.0000      0.3009      0.6928      0.6935      0.6926      0.6926      0.6930           0
172149          B                  2030.0000      0.0000    465.8302    698.7454      1.0000      0.4188      0.6928      0.6935      0.6926      0.6926      0.6930           0
172151          B                  2030.0000      0.0000    425.3585    638.0377      1.0000      0.3294      0.6928      0.6935      0.6926      0.6926      0.6930           0
172145          B                  2030.0000      0.0000    504.6038    756.9058      1.0000      0.8897      0.6928      0.6935      0.6926      0.6926      0.6930           0
172183          C                  2030.0000      0.0000    391.6982    587.5472      1.0000      1.9595      0.6928      0.6935      0.6926      0.6926      0.6930           0
172189          A                  2030.0000      0.0000    491.7170    737.5756      1.0000      0.5329      0.6928      0.6935      0.6926      0.6926      0.6930           0
172115          D                   610.0000      0.0000    133.1132    199.6698      1.0000      1.1355      0.6928      0.6935      0.6926      0.6926      0.6930           0
172122          B                  2030.0000      0.0000    468.5849    702.8774      1.0000      0.4967      0.6928      0.6935      0.6926      0.6926      0.6930           0
172170          A                  2030.0000      0.0000    466.9246    700.3868      1.0000      0.4134      0.6928      0.6935      0.9500      0.1000      0.6930           1
172136          A                  2030.0000      0.0000    451.1321    676.6982      1.0000      0.2231      0.6928      0.6935      0.9500      0.1000      0.6930           1
172157          B                  2030.0000      0.0000    453.0755    679.6132      1.0000      0.0953      0.6928      0.6935      0.9500      0.1000      0.6930           1
172113          A                  2030.0000      0.0000    447.6981    671.5472      1.0000      0.1452      0.6928      0.6935      0.9500      0.1000      0.6930           1
172149          B                  2030.0000      0.0000    465.8302    698.7454      1.0000      0.1368      0.6928      0.6935      0.9500      0.1000      0.6930           1
172176          C                  2030.0000      0.0000    392.0754    588.1132      1.0000      0.3371      0.6928      0.6935      0.9500      0.1000      0.6930           1
172177          C                  2030.0000      0.0000    381.3962    572.0943      1.0000      0.6211      0.6928      0.6935      0.9500      0.1000      0.6930           1
172170          A                  2030.0000      0.0000    466.9246    700.3868      1.0000      0.6016      0.6928      0.6935      0.6926      0.6926      0.6930           0
172183          C                  2030.0000      0.0000    391.6982    587.5472      1.0000      1.5487      0.6928      0.6935      0.6926      0.6926      0.6930           0
172165          B                  2030.0000      0.0000    482.2831    723.4246      1.0000      0.9212      0.6928      0.6935      0.6926      0.6926      0.6930           0
172176          C                  2030.0000      0.0000    392.0754    588.1132      1.0000      0.6951      0.6928      0.6935      0.6926      0.6926      0.6930           0
172177          C                  2030.0000      0.0000    381.3962    572.0943      1.0000      1.5451      0.6928      0.6935      0.6926      0.6926      0.6930           0
172189          A                  2030.0000      0.0000    491.7170    737.5756      1.0000      0.9732      0.6928      0.6935      0.6926      0.6926      0.6930           0
172196          A                    20.0000      0.0000     13.7942     18.3906      1.0000      0.4705      0.6928      0.6935      0.6926      0.6926      0.6930           0
172136          A                  2030.0000      0.0000    451.1321    676.6982      1.0000      0.4388      0.6928      0.6935      0.6926      0.6926      0.6930           0
172157          B                  2030.0000      0.0000    453.0755    679.6132      1.0000      0.0936      0.6928      0.6935      0.6926      0.6926      0.6930           0
172113          A                  2030.0000      0.0000    447.6981    671.5472      1.0000      0.2886      0.6928      0.6935      0.6926      0.6926      0.6930           0
172165          B                  2030.0000      0.0000    482.2831    723.4246      1.0000      0.6751      0.6928      0.6935      0.6926      0.6926      0.6930           0
172170          A                  2030.0000      0.0000    466.9246    700.3868      1.0000      0.3562      0.6928      0.6935      0.6926      0.6926      0.6930           0
172196          A                    20.0000      0.0000     13.7942     18.3906      1.0000      1.4034      0.6928      0.6935      0.6926      0.6926      0.6930           0
172176          C                  2030.0000      0.0000    392.0754    588.1132      1.0000      0.8556      0.6928      0.6935      0.6926      0.6926      0.6930           0
172114          A                  2030.0000      0.0000    435.7925    653.6887      1.0000      0.3920      0.6928      0.6935      0.6926      0.6926      0.6930           0
172184          C                  2030.0000      0.0000    452.2830    678.4246      1.0000      0.4766      0.6928      0.6935      0.6926      0.6926      0.6930           0
172197          C                  1520.0000      0.0000    329.8113    494.7170      1.0000      0.4749      0.6928      0.6935      0.6926      0.6926      0.6930           0
172157          B                  2030.0000      0.0000    453.0755    679.6132      1.0000      0.1060      0.6928      0.6935      0.6926      0.6926      0.6930           0
172149          B                  2030.0000      0.0000    465.8302    698.7454      1.0000      0.1492      0.6928      0.6935      0.6926      0.6926      0.6930           0
172136          A                  2030.0000      0.0000    451.1321    676.6982      1.0000      0.5337      0.6928      0.6935      0.6926      0.6926      0.6930           0
172176          C                  2030.0000      0.0000    392.0754    588.1132      1.0000      0.8640      0.6928      0.6935      0.6926      0.6926      0.6930           0
172183          C                  2030.0000      0.0000    391.6982    587.5472      1.0000      0.9412      0.6928      0.6935      0.6926      0.6926      0.6930           0
172196          A                    20.0000      0.0000     13.7942     18.3906      1.0000      1.2428      0.6928      0.6935      0.6926      0.6926      0.6930           0
172197          C                  1520.0000      0.0000    329.8113    494.7170      1.0000      1.2689      0.6928      0.6935      0.6926      0.6926      0.6930           0
172113          A                  2030.0000      0.0000    447.6981    671.5472      1.0000      0.2024      0.6928      0.6935      0.6926      0.6926      0.6930           0
172136          A                  2030.0000      0.0000    451.1321    676.6982      1.0000      0.4377      0.6928      0.6935      0.6926      0.6926      0.6930           0
172176          C                  2030.0000      0.0000    392.0754    588.1132      1.0000      0.2451      0.6928      0.6935      0.6926      0.6926      0.6930           0
172183          C                  2030.0000      0.0000    391.6982    587.5472      1.0000      0.7747      0.6928      0.6935      0.6926      0.6926      0.6930           0
172171          C                  2030.0000      0.0000    415.7547    623.6321      1.0000      0.1285      0.6928      0.6935      0.9500      0.1000      0.6930           1
172133          C                  1650.0000      0.0000    374.4906    561.7358      1.0000      0.1545      0.6928      0.6935      0.9500      0.1000      0.6930           1
1605972         D                   710.0000      0.0000    159.4717    239.2076      1.0000      0.1037      0.6928      0.6935      0.9500      0.1000      0.6930           1
1605984         C                  2000.0000      0.0000    402.0755    603.1132      1.0000      0.1278      0.6928      0.6935      0.9500      0.1000      0.6930           1
167956          C                  2000.0000      0.0000    395.8491    593.7736      1.0000      0.1029      0.6928      0.6935      0.9500      0.1000      0.6930           1
167991          A                  1520.0000      0.0000    347.7359    521.6038      1.0000      0.3862      0.6928      0.6935      0.9500      0.1000      0.6930           1
167993          C                  1520.0000      0.0000    320.9434    481.4151      1.0000      0.1152      0.6928      0.6935      0.9500      0.1000      0.6930           1
167973          D                   760.0000      0.0000    174.1887    261.2831      1.0000      0.1097      0.6928      0.6935      0.9500      0.1000      0.6930           1
168000          A                  1520.0000      0.0000    369.1699    553.7548      1.0000      0.9009      0.6928      0.6935      0.6926      0.6926      0.6930           0
167989          B                  1520.0000      0.0000    373.1132    559.6699      1.0000      1.4162      0.6928      0.6935      0.6926      0.6926      0.6930           0
167997          C                  1520.0000      0.0000    295.4717    443.2076      1.0000      1.1262      0.6928      0.6935      0.6926      0.6926      0.6930           0
168003          C                  1520.0000      0.0000    330.7547    496.1321      1.0000      0.7222      0.6928      0.6935      0.6926      0.6926      0.6930           0
167978          B                  1520.0000      0.0000    319.6981    479.5472      1.0000      0.1160      0.6928      0.6935      0.6926      0.6926      0.6930           0
168004          C                  1520.0000      0.0000    330.7547    496.1321      1.0000      0.5516      0.6928      0.6935      0.6926      0.6926      0.6930           0
168003          C                  1520.0000      0.0000    330.7547    496.1321      1.0000      0.5592      0.6928      0.6935      0.9500      0.1000      0.6930           1
167978          B                  1520.0000      0.0000    319.6981    479.5472      1.0000      0.1097      0.6928      0.6935      0.9500      0.1000      0.6930           1
168004          C                  1520.0000      0.0000    330.7547    496.1321      1.0000      0.5481      0.6928      0.6935      0.9500      0.1000      0.6930           1
167979          C                  1520.0000      0.0000    316.9623    475.4434      1.0000      0.0960      0.6928      0.6935      0.9500      0.1000      0.6930           1
172169          B                  1750.0000      0.0000    435.6604    653.4906      1.0000      0.0936      0.6928      0.6935      0.6926      0.6926      0.6930           0
1605982         B                  1750.0000      0.0000    435.6604    653.4906      1.0000      0.9618      0.6928      0.6935      0.6926      0.6926      0.6930           0
168000          A                  1520.0000      0.0000    369.1699    553.7548      1.0000      0.4384      0.6928      0.6935      0.6926      0.6926      0.6930           0
168006          C                  1520.0000      0.0000    329.8113    494.7170      1.0000      0.4052      0.6928      0.6935      0.6926      0.6926      0.6930           0
167961          D                   740.0000      0.0000    158.8302    238.2453      1.0000      2.2054      0.6928      0.6935      0.6926      0.6926      0.6930           0
1605984         C                  2000.0000      0.0000    402.0755    603.1132      1.0000      0.1063      0.6928      0.6935      0.9500      0.1000      0.6930           1
167982          C                  1520.0000      0.0000    358.5283    537.7925      1.0000      0.5721      0.6928      0.6935      0.9500      0.1000      0.6930           1
167956          C                  2000.0000      0.0000    395.8491    593.7736      1.0000      0.1014      0.6928      0.6935      0.9500      0.1000      0.6930           1
167975          C                  2000.0000      0.0000    364.5283    546.7925      1.0000      1.4666      0.6928      0.6935      0.9500      0.1000      0.6930           1
172149          B                  2030.0000      0.0000    465.8302    698.7454      1.0000      0.8315      0.6928      0.6935      0.9500      0.1000      0.6930           1
167978          B                  1520.0000      0.0000    319.6981    479.5472      1.0000      0.1107      0.6928      0.6935      0.9500      0.1000      0.6930           1
168004          C                  1520.0000      0.0000    330.7547    496.1321      1.0000      0.4532      0.6928      0.6935      0.9500      0.1000      0.6930           1
172189          A                  2030.0000      0.0000    491.7170    737.5756      1.0000      0.6224      0.6928      0.6935      0.6926      0.6926      0.6930           0
172115          D                   610.0000      0.0000    133.1132    199.6698      1.0000      2.5561      0.6928      0.6935      0.6926      0.6926      0.6930           0
172146          D                   760.0000      0.0000    189.8113    284.7170      1.0000      0.5736      0.6928      0.6935      0.6926      0.6926      0.6930           0
172197          C                  1520.0000      0.0000    329.8113    494.7170      1.0000      0.4977      0.6928      0.6935      0.6926      0.6926      0.6930           0
172169          B                  1750.0000      0.0000    435.6604    653.4906      1.0000      0.4627      0.6928      0.6935      0.6926      0.6926      0.6930           0
172149          B                  2030.0000      0.0000    465.8302    698.7454      1.0000      0.6622      0.6928      0.6935      0.6926      0.6926      0.6930           0
167961          D                   740.0000      0.0000    158.8302    238.2453      1.0000      2.0084      0.6928      0.6935      0.6926      0.6926      0.6930           0
168004          C                  1520.0000      0.0000    330.7547    496.1321      1.0000      0.5933      0.6928      0.6935      0.6926      0.6926      0.6930           0
168000          A                  1520.0000      0.0000    369.1699    553.7548      1.0000      0.4941      0.6928      0.6935      0.6926      0.6926      0.6930           0
167997          C                  1520.0000      0.0000    295.4717    443.2076      1.0000      0.8463      0.6928      0.6935      0.6926      0.6926      0.6930           0
167978          B                  1520.0000      0.0000    319.6981    479.5472      1.0000      0.1014      0.6928      0.6935      0.6926      0.6926      0.6930           0
172149          B                  2030.0000      0.0000    465.8302    698.7454      1.0000      0.1740      0.6928      0.6935      0.9500      0.1000      0.6930           1
172170          A                  2030.0000      0.0000    466.9246    700.3868      1.0000      0.3306      0.6928      0.6935      0.9500      0.1000      0.6930           1
172144          C                  2030.0000      0.0000    396.2453    594.3680      1.0000      0.2235      0.6928      0.6935      0.9500      0.1000      0.6930           1
172133          C                  1650.0000      0.0000    374.4906    561.7358      1.0000      0.1113      0.6928      0.6935      0.9500      0.1000      0.6930           1
172155          C                  2030.0000      0.0000    387.8113    581.7170      1.0000      0.1094      0.6928      0.6935      0.9500      0.1000      0.6930           1
172176          C                  2030.0000      0.0000    392.0754    588.1132      1.0000      0.1111      0.6928      0.6935      0.9500      0.1000      0.6930           1
168003          C                  1520.0000      0.0000    330.7547    496.1321      1.0000      0.7685      0.6928      0.6935      0.9500      0.1000      0.6930           1
172115          D                   610.0000      0.0000    133.1132    199.6698      1.0000      1.4398      0.6928      0.6935      0.6926      0.6926      0.6930           0
172149          B                  2030.0000      0.0000    465.8302    698.7454      1.0000      1.5328      0.6928      0.6935      0.6926      0.6926      0.6930           0
172169          B                  1750.0000      0.0000    435.6604    653.4906      1.0000      0.8327      0.6928      0.6935      0.6926      0.6926      0.6930           0
172170          A                  2030.0000      0.0000    466.9246    700.3868      1.0000      0.6482      0.6928      0.6935      0.6926      0.6926      0.6930           0
172189          A                  2030.0000      0.0000    491.7170    737.5756      1.0000      0.8802      0.6928      0.6935      0.6926      0.6926      0.6930           0
168000          A                  1520.0000      0.0000    369.1699    553.7548      1.0000      0.5367      0.6928      0.6935      0.6926      0.6926      0.6930           0
168003          C                  1520.0000      0.0000    330.7547    496.1321      1.0000      1.9187      0.6928      0.6935      0.6926      0.6926      0.6930           0
172169          B                  1750.0000      0.0000    435.6604    653.4906      1.0000      0.9831      0.6928      0.6935      0.6926      0.6926      0.6930           0
172183          C                  2030.0000      0.0000    391.6982    587.5472      1.0000      1.8654      0.6928      0.6935      0.6926      0.6926      0.6930           0
172170          A                  2030.0000      0.0000    466.9246    700.3868      1.0000      1.9649      0.6928      0.6935      0.6926      0.6926      0.6930           0
167997          C                  1520.0000      0.0000    295.4717    443.2076      1.0000      1.6060      0.6928      0.6935      0.6926      0.6926      0.6930           0
167983          C                  1520.0000      0.0000    358.5283    537.7925      1.0000      1.3299      0.6928      0.6935      0.6926      0.6926      0.6930           0
168003          C                  1520.0000      0.0000    330.7547    496.1321      1.0000      0.8783      0.6928      0.6935      0.6926      0.6926      0.6930           0
167978          B                  1520.0000      0.0000    319.6981    479.5472      1.0000      0.3387      0.6928      0.6935      0.6926      0.6926      0.6930           0
168004          C                  1520.0000      0.0000    330.7547    496.1321      1.0000      0.6850      0.6928      0.6935      0.6926      0.6926      0.6930           0
167970          B                  1520.0000      0.0000    330.3774    495.5660      1.0000      0.3042      0.6928      0.6935      0.6926      0.6926      0.6930           0
168003          C                  1520.0000      0.0000    330.7547    496.1321      1.0000      0.6441      0.6928      0.6935      0.6926      0.6926      0.6930           0
167978          B                  1520.0000      0.0000    319.6981    479.5472      1.0000      0.2388      0.6928      0.6935      0.6926      0.6926      0.6930           0
167997          C                  1520.0000      0.0000    295.4717    443.2076      1.0000      1.5406      0.6928      0.6935      0.6926      0.6926      0.6930           0
167990          A                  1520.0000      0.0000    363.0189    544.5283      1.0000      0.3617      0.6928      0.6935      0.6926      0.6926      0.6930           0
167970          B                  1520.0000      0.0000    330.3774    495.5660      1.0000      0.1930      0.6928      0.6935      0.6926      0.6926      0.6930           0
167999          A                  1520.0000      0.0000    315.4717    473.2076      1.0000      0.3872      0.6928      0.6935      0.6926      0.6926      0.6930           0
168003          C                  1520.0000      0.0000    330.7547    496.1321      1.0000      0.4624      0.6928      0.6935      0.6926      0.6926      0.6930           0
167978          B                  1520.0000      0.0000    319.6981    479.5472      1.0000      0.2449      0.6928      0.6935      0.6926      0.6926      0.6930           0
168004          C                  1520.0000      0.0000    330.7547    496.1321      1.0000      0.7220      0.6928      0.6935      0.6926      0.6926      0.6930           0
167970          B                  1520.0000      0.0000    330.3774    495.5660      1.0000      0.2407      0.6928      0.6935      0.6926      0.6926      0.6930           0
167999          A                  1520.0000      0.0000    315.4717    473.2076      1.0000      0.4679      0.6928      0.6935      0.6926      0.6926      0.6930           0
167990          A                  1520.0000      0.0000    363.0189    544.5283      1.0000      0.3933      0.6928      0.6935      0.6926      0.6926      0.6930           0
168003          C                  1520.0000      0.0000    330.7547    496.1321      1.0000      0.7063      0.6928      0.6935      0.9500      0.1000      0.6930           1
168004          C                  1520.0000      0.0000    330.7547    496.1321      1.0000      0.6385      0.6928      0.6935      0.9500      0.1000      0.6930           1
167978          B                  1520.0000      0.0000    319.6981    479.5472      1.0000      0.2133      0.6928      0.6935      0.9500      0.1000      0.6930           1
167997          C                  1520.0000      0.0000    295.4717    443.2076      1.0000      1.0727      0.6928      0.6935      0.9500      0.1000      0.6930           1
167990          A                  1520.0000      0.0000    363.0189    544.5283      1.0000      0.2620      0.6928      0.6935      0.9500      0.1000      0.6930           1
167978          B                  1520.0000      0.0000    319.6981    479.5472      1.0000      0.2355      0.6928      0.6935      0.6926      0.6926      0.6930           0
168005          A                    20.0000      0.0000     13.7942     18.3906      1.0000      0.6484      0.6928      0.6935      0.6926      0.6926      0.6930           0
167970          B                  1520.0000      0.0000    330.3774    495.5660      1.0000      0.2553      0.6928      0.6935      0.6926      0.6926      0.6930           0
167999          A                  1520.0000      0.0000    315.4717    473.2076      1.0000      0.4589      0.6928      0.6935      0.6926      0.6926      0.6930           0
167990          A                  1520.0000      0.0000    363.0189    544.5283      1.0000      0.4108      0.6928      0.6935      0.6926      0.6926      0.6930           0
167978          B                  1520.0000      0.0000    319.6981    479.5472      1.0000      0.2324      0.6928      0.6935      0.6926      0.6926      0.6930           0
168004          C                  1520.0000      0.0000    330.7547    496.1321      1.0000      0.5934      0.6928      0.6935      0.6926      0.6926      0.6930           0
167970          B                  1520.0000      0.0000    330.3774    495.5660      1.0000      0.2648      0.6928      0.6935      0.6926      0.6926      0.6930           0
168003          C                  1520.0000      0.0000    330.7547    496.1321      1.0000      0.2730      0.6928      0.6935      0.6926      0.6926      0.6930           0
167990          A                  1520.0000      0.0000    363.0189    544.5283      1.0000      0.3734      0.6928      0.6935      0.6926      0.6926      0.6930           0
167999          A                  1520.0000      0.0000    315.4717    473.2076      1.0000      0.4007      0.6928      0.6935      0.6926      0.6926      0.6930           0
167997          C                  1520.0000      0.0000    295.4717    443.2076      1.0000      1.7494      0.6928      0.6935      0.6926      0.6926      0.6930           0
168003          C                  1520.0000      0.0000    330.7547    496.1321      1.0000      0.7337      0.6928      0.6935      0.6926      0.6926      0.6930           0
167978          B                  1520.0000      0.0000    319.6981    479.5472      1.0000      0.4201      0.6928      0.6935      0.6926      0.6926      0.6930           0
168005          A                    20.0000      0.0000     13.7942     18.3906      1.0000      0.4358      0.6928      0.6935      0.6926      0.6926      0.6930           0
167967          B                  1520.0000      0.0000    351.0189    526.5283      1.0000      0.4301      0.6928      0.6935      0.6926      0.6926      0.6930           0
167975          C                  2000.0000      0.0000    364.5283    546.7925      1.0000      0.2194      0.6928      0.6935      0.6926      0.6926      0.6930           0
167989          B                  1520.0000      0.0000    373.1132    559.6699      1.0000      0.7257      0.6928      0.6935      0.6926      0.6926      0.6930           0
167956          C                  2000.0000      0.0000    395.8491    593.7736      1.0000      0.2785      0.6928      0.6935      0.6926      0.6926      0.6930           0
168003          C                  1520.0000      0.0000    330.7547    496.1321      1.0000      0.5552      0.6928      0.6935      0.6926      0.6926      0.6930           0
167999          A                  1520.0000      0.0000    315.4717    473.2076      1.0000      0.7381      0.6928      0.6935      0.6926      0.6926      0.6930           0
167978          B                  1520.0000      0.0000    319.6981    479.5472      1.0000      0.2945      0.6928      0.6935      0.6926      0.6926      0.6930           0
167977          B                  1520.0000      0.0000    349.3962    524.0944      1.0000      0.4246      0.6928      0.6935      0.6926      0.6926      0.6930           0
167975          C                  2000.0000      0.0000    364.5283    546.7925      1.0000      0.4137      0.6928      0.6935      0.6926      0.6926      0.6930           0
167989          B                  1520.0000      0.0000    373.1132    559.6699      1.0000      0.4459      0.6928      0.6935      0.6926      0.6926      0.6930           0
167990          A                  1520.0000      0.0000    363.0189    544.5283      1.0000      0.5166      0.6928      0.6935      0.6926      0.6926      0.6930           0
167970          B                  1520.0000      0.0000    330.3774    495.5660      1.0000      0.4191      0.6928      0.6935      0.6926      0.6926      0.6930           0
167967          B                  1520.0000      0.0000    351.0189    526.5283      1.0000      0.6395      0.6928      0.6935      0.6926      0.6926      0.6930           0
168003          C                  1520.0000      0.0000    330.7547    496.1321      1.0000      0.4129      0.6928      0.6935      0.9500      0.1000      0.6930           1
167978          B                  1520.0000      0.0000    319.6981    479.5472      1.0000      0.2575      0.6928      0.6935      0.9500      0.1000      0.6930           1
167975          C                  2000.0000      0.0000    364.5283    546.7925      1.0000      0.2194      0.6928      0.6935      0.9500      0.1000      0.6930           1
167990          A                  1520.0000      0.0000    363.0189    544.5283      1.0000      0.6083      0.6928      0.6935      0.9500      0.1000      0.6930           1
167977          B                  1520.0000      0.0000    349.3962    524.0944      1.0000      0.4167      0.6928      0.6935      0.9500      0.1000      0.6930           1
167967          B                  1520.0000      0.0000    351.0189    526.5283      1.0000      0.3167      0.6928      0.6935      0.9500      0.1000      0.6930           1
167971          C                  1520.0000      0.0000    294.8113    442.2170      1.0000      0.1759      0.6928      0.6935      0.9500      0.1000      0.6930           1
168003          C                  1520.0000      0.0000    330.7547    496.1321      1.0000      0.3980      0.6928      0.6935      0.6926      0.6926      0.6930           0
167978          B                  1520.0000      0.0000    319.6981    479.5472      1.0000      0.2545      0.6928      0.6935      0.6926      0.6926      0.6930           0
167999          A                  1520.0000      0.0000    315.4717    473.2076      1.0000      0.7968      0.6928      0.6935      0.6926      0.6926      0.6930           0
167972          A                  1520.0000      0.0000    353.9623    530.9435      1.0000      0.4040      0.6928      0.6935      0.6926      0.6926      0.6930           0
167990          A                  1520.0000      0.0000    363.0189    544.5283      1.0000      0.5587      0.6928      0.6935      0.6926      0.6926      0.6930           0
167977          B                  1520.0000      0.0000    349.3962    524.0944      1.0000      0.4423      0.6928      0.6935      0.6926      0.6926      0.6930           0
167975          C                  2000.0000      0.0000    364.5283    546.7925      1.0000      0.4390      0.6928      0.6935      0.6926      0.6926      0.6930           0
167967          B                  1520.0000      0.0000    351.0189    526.5283      1.0000      0.4863      0.6928      0.6935      0.6926      0.6926      0.6930           0
168005          A                    20.0000      0.0000     13.7942     18.3906      1.0000      0.4386      0.6928      0.6935      0.6926      0.6926      0.6930           0
167956          C                  2000.0000      0.0000    395.8491    593.7736      1.0000      0.2486      0.6928      0.6935      0.6926      0.6926      0.6930           0
167971          C                  1520.0000      0.0000    294.8113    442.2170      1.0000      0.1872      0.6928      0.6935      0.6926      0.6926      0.6930           0
168003          C                  1520.0000      0.0000    330.7547    496.1321      1.0000      0.4574      0.6928      0.6935      0.6926      0.6926      0.6930           0
167999          A                  1520.0000      0.0000    315.4717    473.2076      1.0000      0.5878      0.6928      0.6935      0.6926      0.6926      0.6930           0
167978          B                  1520.0000      0.0000    319.6981    479.5472      1.0000      0.3351      0.6928      0.6935      0.6926      0.6926      0.6930           0
167977          B                  1520.0000      0.0000    349.3962    524.0944      1.0000      0.3855      0.6928      0.6935      0.6926      0.6926      0.6930           0
167990          A                  1520.0000      0.0000    363.0189    544.5283      1.0000      0.5932      0.6928      0.6935      0.6926      0.6926      0.6930           0
167975          C                  2000.0000      0.0000    364.5283    546.7925      1.0000      0.3809      0.6928      0.6935      0.6926      0.6926      0.6930           0
167970          B                  1520.0000      0.0000    330.3774    495.5660      1.0000      0.4935      0.6928      0.6935      0.6926      0.6926      0.6930           0
167967          B                  1520.0000      0.0000    351.0189    526.5283      1.0000      0.5915      0.6928      0.6935      0.6926      0.6926      0.6930           0
167978          B                  1520.0000      0.0000    319.6981    479.5472      1.0000      0.3915      0.6928      0.6935      0.6926      0.6926      0.6930           0
168003          C                  1520.0000      0.0000    330.7547    496.1321      1.0000      0.4444      0.6928      0.6935      0.6926      0.6926      0.6930           0
167972          A                  1520.0000      0.0000    353.9623    530.9435      1.0000      0.2530      0.6928      0.6935      0.6926      0.6926      0.6930           0
167977          B                  1520.0000      0.0000    349.3962    524.0944      1.0000      0.4000      0.6928      0.6935      0.6926      0.6926      0.6930           0
167999          A                  1520.0000      0.0000    315.4717    473.2076      1.0000      0.5736      0.6928      0.6935      0.6926      0.6926      0.6930           0
167990          A                  1520.0000      0.0000    363.0189    544.5283      1.0000      0.3090      0.6928      0.6935      0.6926      0.6926      0.6930           0
167967          B                  1520.0000      0.0000    351.0189    526.5283      1.0000      0.4668      0.6928      0.6935      0.6926      0.6926      0.6930           0
167975          C                  2000.0000      0.0000    364.5283    546.7925      1.0000      0.2988      0.6928      0.6935      0.6926      0.6926      0.6930           0
1605983         A                  2030.0000      0.0000    466.9246    700.3868      1.0000      0.4497      0.6928      0.6935      0.6926      0.6926      0.6930           0
167978          B                  1520.0000      0.0000    319.6981    479.5472      1.0000      0.4784      0.6928      0.6935      0.6926      0.6926      0.6930           0
167983          C                  1520.0000      0.0000    358.5283    537.7925      1.0000      0.6430      0.6928      0.6935      0.6926      0.6926      0.6930           0
167999          A                  1520.0000      0.0000    315.4717    473.2076      1.0000      0.6445      0.6928      0.6935      0.6926      0.6926      0.6930           0
167967          B                  1520.0000      0.0000    351.0189    526.5283      1.0000      0.5988      0.6928      0.6935      0.6926      0.6926      0.6930           0
167975          C                  2000.0000      0.0000    364.5283    546.7925      1.0000      0.3061      0.6928      0.6935      0.6926      0.6926      0.6930           0
2996484         C                  2000.0000      0.0000    378.5849    567.8774      1.0000      0.4009      0.6928      0.6935      0.6926      0.6926      0.6930           0
167971          C                  1520.0000      0.0000    294.8113    442.2170      1.0000      0.1687      0.6928      0.6935      0.6926      0.6926      0.6930           0
168004          C                  1520.0000      0.0000    330.7547    496.1321      1.0000      0.1690      0.6928      0.6935      0.6926      0.6926      0.6930           0
167956          C                  2000.0000      0.0000    395.8491    593.7736      1.0000      0.2667      0.6928      0.6935      0.6926      0.6926      0.6930           0
167958          A                  1520.0000      0.0000    345.5283    518.2925      1.0000      0.7291      0.6928      0.6935      0.6926      0.6926      0.6930           0
167983          C                  1520.0000      0.0000    358.5283    537.7925      1.0000      0.8055      0.6928      0.6935      0.6926      0.6926      0.6930           0
167997          C                  1520.0000      0.0000    295.4717    443.2076      1.0000      1.7791      0.6928      0.6935      0.6926      0.6926      0.6930           0
167978          B                  1520.0000      0.0000    319.6981    479.5472      1.0000      0.9397      0.6928      0.6935      0.6926      0.6926      0.6930           0
168003          C                  1520.0000      0.0000    330.7547    496.1321      1.0000      1.3026      0.6928      0.6935      0.6926      0.6926      0.6930           0
167989          B                  1520.0000      0.0000    373.1132    559.6699      1.0000      0.5720      0.6928      0.6935      0.6926      0.6926      0.6930           0
167967          B                  1520.0000      0.0000    351.0189    526.5283      1.0000      0.9804      0.6928      0.6935      0.6926      0.6926      0.6930           0
167975          C                  2000.0000      0.0000    364.5283    546.7925      1.0000      0.3526      0.6928      0.6935      0.6926      0.6926      0.6930           0
167956          C                  2000.0000      0.0000    395.8491    593.7736      1.0000      0.2312      0.6928      0.6935      0.6926      0.6926      0.6930           0
2996484         C                  2000.0000      0.0000    378.5849    567.8774      1.0000      0.4241      0.6928      0.6935      0.6926      0.6926      0.6930           0
167971          C                  1520.0000      0.0000    294.8113    442.2170      1.0000      0.2059      0.6928      0.6935      0.6926      0.6926      0.6930           0
167978          B                  1520.0000      0.0000    319.6981    479.5472      1.0000      0.3531      0.6928      0.6935      0.9500      0.1000      0.6930           1
168003          C                  1520.0000      0.0000    330.7547    496.1321      1.0000      0.6350      0.6928      0.6935      0.9500      0.1000      0.6930           1
167975          C                  2000.0000      0.0000    364.5283    546.7925      1.0000      0.2588      0.6928      0.6935      0.9500      0.1000      0.6930           1
167967          B                  1520.0000      0.0000    351.0189    526.5283      1.0000      0.4335      0.6928      0.6935      0.9500      0.1000      0.6930           1
167957          C                  2000.0000      0.0000    393.8680    590.8019      1.0000      0.2104      0.6928      0.6935      0.9500      0.1000      0.6930           1
167971          C                  1520.0000      0.0000    294.8113    442.2170      1.0000      0.1660      0.6928      0.6935      0.9500      0.1000      0.6930           1
2996484         C                  2000.0000      0.0000    378.5849    567.8774      1.0000      0.3229      0.6928      0.6935      0.9500      0.1000      0.6930           1
167956          C                  2000.0000      0.0000    395.8491    593.7736      1.0000      0.2161      0.6928      0.6935      0.9500      0.1000      0.6930           1
172113          A                  2030.0000      0.0000    447.6981    671.5472      1.0000      0.4022      0.6928      0.6935      0.6926      0.6926      0.6930           0
168003          C                  1520.0000      0.0000    330.7547    496.1321      1.0000      0.6200      0.6928      0.6935      0.6926      0.6926      0.6930           0
167997          C                  1520.0000      0.0000    295.4717    443.2076      1.0000      2.3266      0.6928      0.6935      0.6926      0.6926      0.6930           0
167958          A                  1520.0000      0.0000    345.5283    518.2925      1.0000      0.3003      0.6928      0.6935      0.6926      0.6926      0.6930           0
1605971         A                  2030.0000      0.0000    451.1321    676.6982      1.0000      0.3206      0.6928      0.6935      0.6926      0.6926      0.6930           0
167978          B                  1520.0000      0.0000    319.6981    479.5472      1.0000      0.3642      0.6928      0.6935      0.6926      0.6926      0.6930           0
172169          B                  1750.0000      0.0000    435.6604    653.4906      1.0000      0.9981      0.6928      0.6935      0.6926      0.6926      0.6930           0
172183          C                  2030.0000      0.0000    391.6982    587.5472      1.0000      2.1792      0.6928      0.6935      0.6926      0.6926      0.6930           0
172187          A                  2030.0000      0.0000    421.3208    631.9812      1.0000      1.7338      0.6928      0.6935      0.6926      0.6926      0.6930           0
168004          C                  1520.0000      0.0000    330.7547    496.1321      1.0000      2.7551      0.6928      0.6935      0.6926      0.6926      0.6930           0
167997          C                  1520.0000      0.0000    295.4717    443.2076      1.0000      1.7319      0.6928      0.6935      0.6926      0.6926      0.6930           0
168003          C                  1520.0000      0.0000    330.7547    496.1321      1.0000      0.8636      0.6928      0.6935      0.6926      0.6926      0.6930           0
167983          C                  1520.0000      0.0000    358.5283    537.7925      1.0000      1.0216      0.6928      0.6935      0.6926      0.6926      0.6930           0
167958          A                  1520.0000      0.0000    345.5283    518.2925      1.0000      0.9301      0.6928      0.6935      0.6926      0.6926      0.6930           0
167978          B                  1520.0000      0.0000    319.6981    479.5472      1.0000      0.5124      0.6928      0.6935      0.6926      0.6926      0.6930           0
168003          C                  1520.0000      0.0000    330.7547    496.1321      1.0000      0.6603      0.6928      0.6935      0.6926      0.6926      0.6930           0
167958          A                  1520.0000      0.0000    345.5283    518.2925      1.0000      0.2496      0.6928      0.6935      0.6926      0.6926      0.6930           0
167997          C                  1520.0000      0.0000    295.4717    443.2076      1.0000      0.5920      0.6928      0.6935      0.6926      0.6926      0.6930           0
167978          B                  1520.0000      0.0000    319.6981    479.5472      1.0000      0.4923      0.6928      0.6935      0.6926      0.6926      0.6930           0
168004          C                  1520.0000      0.0000    330.7547    496.1321      1.0000      0.1532      0.6928      0.6935      0.6926      0.6926      0.6930           0
167990          A                  1520.0000      0.0000    363.0189    544.5283      1.0000      0.5501      0.6928      0.6935      0.6926      0.6926      0.6930           0
172136          A                  2030.0000      0.0000    451.1321    676.6982      1.0000      0.1593      0.6928      0.6935      0.9500      0.1000      0.6930           1
168003          C                  1520.0000      0.0000    330.7547    496.1321      1.0000      0.4256      0.6928      0.6935      0.9500      0.1000      0.6930           1
167958          A                  1520.0000      0.0000    345.5283    518.2925      1.0000      0.2206      0.6928      0.6935      0.9500      0.1000      0.6930           1
167978          B                  1520.0000      0.0000    319.6981    479.5472      1.0000      0.1559      0.6928      0.6935      0.9500      0.1000      0.6930           1
172113          A                  2030.0000      0.0000    447.6981    671.5472      1.0000      0.6717      0.6928      0.6935      0.6926      0.6926      0.6930           0
172196          A                    20.0000      0.0000     13.7942     18.3906      1.0000      0.9038      0.6928      0.6935      0.6926      0.6926      0.6930           0
172183          C                  2030.0000      0.0000    391.6982    587.5472      1.0000      1.6285      0.6928      0.6935      0.6926      0.6926      0.6930           0
168003          C                  1520.0000      0.0000    330.7547    496.1321      1.0000      0.5835      0.6928      0.6935      0.6926      0.6926      0.6930           0
167958          A                  1520.0000      0.0000    345.5283    518.2925      1.0000      0.6537      0.6928      0.6935      0.6926      0.6926      0.6930           0
167997          C                  1520.0000      0.0000    295.4717    443.2076      1.0000      0.8661      0.6928      0.6935      0.6926      0.6926      0.6930           0
167983          C                  1520.0000      0.0000    358.5283    537.7925      1.0000      0.6428      0.6928      0.6935      0.6926      0.6926      0.6930           0
1605971         A                  2030.0000      0.0000    451.1321    676.6982      1.0000      0.2872      0.6928      0.6935      0.6926      0.6926      0.6930           0
167978          B                  1520.0000      0.0000    319.6981    479.5472      1.0000      0.2316      0.6928      0.6935      0.6926      0.6926      0.6930           0
168003          C                  1520.0000      0.0000    330.7547    496.1321      1.0000      0.5424      0.6928      0.6935      0.6926      0.6926      0.6930           0
167978          B                  1520.0000      0.0000    319.6981    479.5472      1.0000      0.2486      0.6928      0.6935      0.6926      0.6926      0.6930           0
167958          A                  1520.0000      0.0000    345.5283    518.2925      1.0000      0.2250      0.6928      0.6935      0.6926      0.6926      0.6930           0
167990          A                  1520.0000      0.0000    363.0189    544.5283      1.0000      0.2901      0.6928      0.6935      0.6926      0.6926      0.6930           0
167978          B                  1520.0000      0.0000    319.6981    479.5472      1.0000      0.1947      0.6928      0.6935      0.6926      0.6926      0.6930           0
167990          A                  1520.0000      0.0000    363.0189    544.5283      1.0000      0.3009      0.6928      0.6935      0.6926      0.6926      0.6930           0
172169          B                  1750.0000      0.0000    435.6604    653.4906      1.0000      0.8224      0.6928      0.6935      0.6926      0.6926      0.6930           0
172189          A                  2030.0000      0.0000    491.7170    737.5756      1.0000      0.7070      0.6928      0.6935      0.6926      0.6926      0.6930           0
172170          A                  2030.0000      0.0000    466.9246    700.3868      1.0000      0.1378      0.6928      0.6935      0.6926      0.6926      0.6930           0
172186          C                  2030.0000      0.0000    447.3962    671.0944      1.0000      3.5925      0.6928      0.6935      0.6926      0.6926      0.6930           0
172183          C                  2030.0000      0.0000    391.6982    587.5472      1.0000      1.9248      0.6928      0.6935      0.6926      0.6926      0.6930           0
172187          A                  2030.0000      0.0000    421.3208    631.9812      1.0000      1.0750      0.6928      0.6935      0.6926      0.6926      0.6930           0
172136          A                  2030.0000      0.0000    451.1321    676.6982      1.0000      0.3862      0.6928      0.6935      0.6926      0.6926      0.6930           0
172189          A                  2030.0000      0.0000    491.7170    737.5756      1.0000      1.0199      0.6928      0.6935      0.6926      0.6926      0.6930           0
172170          A                  2030.0000      0.0000    466.9246    700.3868      1.0000      0.1806      0.6928      0.6935      0.6926      0.6926      0.6930           0
172183          C                  2030.0000      0.0000    391.6982    587.5472      1.0000      1.4331      0.6928      0.6935      0.6926      0.6926      0.6930           0
172186          C                  2030.0000      0.0000    447.3962    671.0944      1.0000      4.1382      0.6928      0.6935      0.6926      0.6926      0.6930           0
172187          A                  2030.0000      0.0000    421.3208    631.9812      1.0000      0.5636      0.6928      0.6935      0.6926      0.6926      0.6930           0
172170          A                  2030.0000      0.0000    466.9246    700.3868      1.0000      0.5339      0.6928      0.6935      0.6926      0.6926      0.6930           0
172170          A                  2030.0000      0.0000    466.9246    700.3868      1.0000      0.3853      0.6928      0.6935      0.9500      0.1000      0.6930           1
172136          A                  2030.0000      0.0000    451.1321    676.6982      1.0000      0.2208      0.6928      0.6935      0.9500      0.1000      0.6930           1
172183          C                  2030.0000      0.0000    391.6982    587.5472      1.0000      0.9860      0.6928      0.6935      0.9500      0.1000      0.6930           1
172189          A                  2030.0000      0.0000    491.7170    737.5756      1.0000      0.4365      0.6928      0.6935      0.6926      0.6926      0.6930           0
168000          A                  1520.0000      0.0000    369.1699    553.7548      1.0000      0.5770      0.6928      0.6935      0.6926      0.6926      0.6930           0
167961          D                   740.0000      0.0000    158.8302    238.2453      1.0000      2.5696      0.6928      0.6935      0.6926      0.6926      0.6930           0
168003          C                  1520.0000      0.0000    330.7547    496.1321      1.0000      0.8411      0.6928      0.6935      0.6926      0.6926      0.6930           0
168004          C                  1520.0000      0.0000    330.7547    496.1321      1.0000      0.9315      0.6928      0.6935      0.6926      0.6926      0.6930           0
167983          C                  1520.0000      0.0000    358.5283    537.7925      1.0000      0.7180      0.6928      0.6935      0.6926      0.6926      0.6930           0
167997          C                  1520.0000      0.0000    295.4717    443.2076      1.0000      1.5851      0.6928      0.6935      0.6926      0.6926      0.6930           0
167978          B                  1520.0000      0.0000    319.6981    479.5472      1.0000      0.1558      0.6928      0.6935      0.6926      0.6926      0.6930           0
167982          C                  1520.0000      0.0000    358.5283    537.7925      1.0000      0.9055      0.6928      0.6935      0.6926      0.6926      0.6930           0
167967          B                  1520.0000      0.0000    351.0189    526.5283      1.0000      0.5337      0.6928      0.6935      0.9500      0.1000      0.6930           1
168003          C                  1520.0000      0.0000    330.7547    496.1321      1.0000      0.6261      0.6928      0.6935      0.9500      0.1000      0.6930           1
168000          A                  1520.0000      0.0000    369.1699    553.7548      1.0000      0.4287      0.6928      0.6935      0.9500      0.1000      0.6930           1
167978          B                  1520.0000      0.0000    319.6981    479.5472      1.0000      0.1404      0.6928      0.6935      0.9500      0.1000      0.6930           1
167997          C                  1520.0000      0.0000    295.4717    443.2076      1.0000      0.7688      0.6928      0.6935      0.9500      0.1000      0.6930           1
168004          C                  1520.0000      0.0000    330.7547    496.1321      1.0000      0.4243      0.6928      0.6935      0.9500      0.1000      0.6930           1
167982          C                  1520.0000      0.0000    358.5283    537.7925      1.0000      0.4397      0.6928      0.6935      0.9500      0.1000      0.6930           1
167990          A                  1520.0000      0.0000    363.0189    544.5283      1.0000      0.3091      0.6928      0.6935      0.6926      0.6926      0.6930           0
167978          B                  1520.0000      0.0000    319.6981    479.5472      1.0000      0.1630      0.6928      0.6935      0.6926      0.6926      0.6930           0
168003          C                  1520.0000      0.0000    330.7547    496.1321      1.0000      0.9182      0.6928      0.6935      0.6926      0.6926      0.6930           0
168000          A                  1520.0000      0.0000    369.1699    553.7548      1.0000      0.5851      0.6928      0.6935      0.6926      0.6926      0.6930           0
167997          C                  1520.0000      0.0000    295.4717    443.2076      1.0000      1.3033      0.6928      0.6935      0.6926      0.6926      0.6930           0
167967          B                  1520.0000      0.0000    351.0189    526.5283      1.0000      0.6867      0.6928      0.6935      0.6926      0.6926      0.6930           0
167982          C                  1520.0000      0.0000    358.5283    537.7925      1.0000      0.5414      0.6928      0.6935      0.6926      0.6926      0.6930           0
168004          C                  1520.0000      0.0000    330.7547    496.1321      1.0000      0.5701      0.6928      0.6935      0.6926      0.6926      0.6930           0
167970          B                  1520.0000      0.0000    330.3774    495.5660      1.0000      0.1818      0.6928      0.6935      0.6926      0.6926      0.6930           0
167990          A                  1520.0000      0.0000    363.0189    544.5283      1.0000      0.8741      0.6928      0.6935      0.6926      0.6926      0.6930           0
168003          C                  1520.0000      0.0000    330.7547    496.1321      1.0000      0.6876      0.6928      0.6935      0.6926      0.6926      0.6930           0
167978          B                  1520.0000      0.0000    319.6981    479.5472      1.0000      0.3023      0.6928      0.6935      0.6926      0.6926      0.6930           0
167983          C                  1520.0000      0.0000    358.5283    537.7925      1.0000      0.8983      0.6928      0.6935      0.6926      0.6926      0.6930           0
168004          C                  1520.0000      0.0000    330.7547    496.1321      1.0000      0.4644      0.6928      0.6935      0.6926      0.6926      0.6930           0
167970          B                  1520.0000      0.0000    330.3774    495.5660      1.0000      0.2348      0.6928      0.6935      0.6926      0.6926      0.6930           0
167999          A                  1520.0000      0.0000    315.4717    473.2076      1.0000      0.5045      0.6928      0.6935      0.6926      0.6926      0.6930           0
167967          B                  1520.0000      0.0000    351.0189    526.5283      1.0000      0.4188      0.6928      0.6935      0.6926      0.6926      0.6930           0
167982          C                  1520.0000      0.0000    358.5283    537.7925      1.0000      0.6116      0.6928      0.6935      0.6926      0.6926      0.6930           0
168003          C                  1520.0000      0.0000    330.7547    496.1321      1.0000      0.6781      0.6928      0.6935      0.6926      0.6926      0.6930           0
167978          B                  1520.0000      0.0000    319.6981    479.5472      1.0000      0.2227      0.6928      0.6935      0.6926      0.6926      0.6930           0
167982          C                  1520.0000      0.0000    358.5283    537.7925      1.0000      0.5985      0.6928      0.6935      0.6926      0.6926      0.6930           0
168004          C                  1520.0000      0.0000    330.7547    496.1321      1.0000      0.2585      0.6928      0.6935      0.6926      0.6926      0.6930           0
167970          B                  1520.0000      0.0000    330.3774    495.5660      1.0000      0.2059      0.6928      0.6935      0.6926      0.6926      0.6930           0
167999          A                  1520.0000      0.0000    315.4717    473.2076      1.0000      0.5567      0.6928      0.6935      0.6926      0.6926      0.6930           0
167967          B                  1520.0000      0.0000    351.0189    526.5283      1.0000      0.4244      0.6928      0.6935      0.6926      0.6926      0.6930           0
167958          A                  1520.0000      0.0000    345.5283    518.2925      1.0000      0.5902      0.6928      0.6935      0.6926      0.6926      0.6930           0
167993          C                  1520.0000      0.0000    320.9434    481.4151      1.0000      0.1285      0.6928      0.6935      0.9500      0.1000      0.6930           1
167975          C                  2000.0000      0.0000    364.5283    546.7925      1.0000      0.1611      0.6928      0.6935      0.9500      0.1000      0.6930           1
167977          B                  1520.0000      0.0000    349.3962    524.0944      1.0000      0.2021      0.6928      0.6935      0.9500      0.1000      0.6930           1
167999          A                  1520.0000      0.0000    315.4717    473.2076      1.0000      0.4343      0.6928      0.6935      0.9500      0.1000      0.6930           1
167956          C                  2000.0000      0.0000    395.8491    593.7736      1.0000      0.1518      0.6928      0.6935      0.9500      0.1000      0.6930           1
167993          C                  1520.0000      0.0000    320.9434    481.4151      1.0000      0.1352      0.6928      0.6935      0.9500      0.1000      0.6930           1
167956          C                  2000.0000      0.0000    395.8491    593.7736      1.0000      0.1515      0.6928      0.6935      0.9500      0.1000      0.6930           1
167975          C                  2000.0000      0.0000    364.5283    546.7925      1.0000      0.1730      0.6928      0.6935      0.9500      0.1000      0.6930           1
167959          D                  2000.0000      0.0000    345.5661    518.3491      1.0000      0.1556      0.6928      0.6935      0.9500      0.1000      0.6930           1
2676647         D                  2000.0000      0.0000    345.5661    518.3491      1.0000      0.1435      0.6928      0.6935      0.9500      0.1000      0.6930           1
169968          C                  1520.0000      0.0000    321.5661    482.3491      1.0000      0.1356      0.6928      0.6935      0.9500      0.1000      0.6930           1
2903471         C                  2000.0000      0.0000    402.0755    603.1132      1.0000      0.1514      0.6928      0.6935      0.9500      0.1000      0.6930           1
167992          C                  1520.0000      0.0000    312.8302    469.2453      1.0000      0.1564      0.6928      0.6935      0.9500      0.1000      0.6930           1
168000          A                  1520.0000      0.0000    369.1699    553.7548      1.0000      0.6469      0.6928      0.6935      0.6926      0.6926      0.6930           0
167956          C                  2000.0000      0.0000    395.8491    593.7736      1.0000      0.7192      0.6928      0.6935      0.6926      0.6926      0.6930           0
167961          D                   740.0000      0.0000    158.8302    238.2453      1.0000      2.3399      0.6928      0.6935      0.6926      0.6926      0.6930           0
1605972         D                   710.0000      0.0000    159.4717    239.2076      1.0000      0.1813      0.6928      0.6935      0.6926      0.6926      0.6930           0
167973          D                   760.0000      0.0000    174.1887    261.2831      1.0000      0.1786      0.6928      0.6935      0.6926      0.6926      0.6930           0
167993          C                  1520.0000      0.0000    320.9434    481.4151      1.0000      0.2366      0.6928      0.6935      0.6926      0.6926      0.6930           0
1605984         C                  2000.0000      0.0000    402.0755    603.1132      1.0000      0.1228      0.6928      0.6935      0.9500      0.1000      0.6930           1
167956          C                  2000.0000      0.0000    395.8491    593.7736      1.0000      0.2216      0.6928      0.6935      0.9500      0.1000      0.6930           1
1605972         D                   710.0000      0.0000    159.4717    239.2076      1.0000      0.1190      0.6928      0.6935      0.9500      0.1000      0.6930           1
167973          D                   760.0000      0.0000    174.1887    261.2831      1.0000      0.1212      0.6928      0.6935      0.9500      0.1000      0.6930           1
167975          C                  2000.0000      0.0000    364.5283    546.7925      1.0000      0.2323      0.6928      0.6935      0.9500      0.1000      0.6930           1
167993          C                  1520.0000      0.0000    320.9434    481.4151      1.0000      0.1472      0.6928      0.6935      0.9500      0.1000      0.6930           1
167996          C                   660.0000      0.0000    149.7170    224.5755      1.0000      0.1726      0.6928      0.6935      0.9500      0.1000      0.6930           1
167970          B                  1520.0000      0.0000    330.3774    495.5660      1.0000      0.1348      0.6928      0.6935      0.9500      0.1000      0.6930           1
167993          C                  1520.0000      0.0000    320.9434    481.4151      1.0000      0.1242      0.6928      0.6935      0.9500      0.1000      0.6930           1
167973          D                   760.0000      0.0000    174.1887    261.2831      1.0000      0.1275      0.6928      0.6935      0.9500      0.1000      0.6930           1
167990          A                  1520.0000      0.0000    363.0189    544.5283      1.0000      0.2959      0.6928      0.6935      0.9500      0.1000      0.6930           1
167996          C                   660.0000      0.0000    149.7170    224.5755      1.0000      0.1395      0.6928      0.6935      0.9500      0.1000      0.6930           1
167999          A                  1520.0000      0.0000    315.4717    473.2076      1.0000      0.5073      0.6928      0.6935      0.9500      0.1000      0.6930           1
167970          B                  1520.0000      0.0000    330.3774    495.5660      1.0000      0.1425      0.6928      0.6935      0.9500      0.1000      0.6930           1
167971          C                  1520.0000      0.0000    294.8113    442.2170      1.0000      0.1377      0.6928      0.6935      0.9500      0.1000      0.6930           1
168003          C                  1520.0000      0.0000    330.7547    496.1321      1.0000      0.2342      0.6928      0.6935      0.9500      0.1000      0.6930           1
167983          C                  1520.0000      0.0000    358.5283    537.7925      1.0000      0.3911      0.6928      0.6935      0.9500      0.1000      0.6930           1
167977          B                  1520.0000      0.0000    349.3962    524.0944      1.0000      0.2125      0.6928      0.6935      0.9500      0.1000      0.6930           1
167978          B                  1520.0000      0.0000    319.6981    479.5472      1.0000      0.1038      0.6928      0.6935      0.9500      0.1000      0.6930           1
168000          A                  1520.0000      0.0000    369.1699    553.7548      1.0000      0.4320      0.6928      0.6935      0.9500      0.1000      0.6930           1
167977          B                  1520.0000      0.0000    349.3962    524.0944      1.0000      0.5671      0.6928      0.6935      0.9500      0.1000      0.6930           1
167978          B                  1520.0000      0.0000    319.6981    479.5472      1.0000      0.1314      0.6928      0.6935      0.9500      0.1000      0.6930           1
167956          C                  2000.0000      0.0000    395.8491    593.7736      1.0000      0.2104      0.6928      0.6935      0.9500      0.1000      0.6930           1
167993          C                  1520.0000      0.0000    320.9434    481.4151      1.0000      0.1100      0.6928      0.6935      0.9500      0.1000      0.6930           1
167982          C                  1520.0000      0.0000    358.5283    537.7925      1.0000      0.2366      0.6928      0.6935      0.9500      0.1000      0.6930           1
168003          C                  1520.0000      0.0000    330.7547    496.1321      1.0000      0.7639      0.6928      0.6935      0.9500      0.1000      0.6930           1
168000          A                  1520.0000      0.0000    369.1699    553.7548      1.0000      0.6610      0.6928      0.6935      0.6926      0.6926      0.6930           0
168006          C                  1520.0000      0.0000    329.8113    494.7170      1.0000      0.8287      0.6928      0.6935      0.6926      0.6926      0.6930           0
167977          B                  1520.0000      0.0000    349.3962    524.0944      1.0000      0.6580      0.6928      0.6935      0.6926      0.6926      0.6930           0
167961          D                   740.0000      0.0000    158.8302    238.2453      1.0000      1.6893      0.6928      0.6935      0.6926      0.6926      0.6930           0
167956          C                  2000.0000      0.0000    395.8491    593.7736      1.0000      0.7444      0.6928      0.6935      0.6926      0.6926      0.6930           0
167978          B                  1520.0000      0.0000    319.6981    479.5472      1.0000      1.0677      0.6928      0.6935      0.6926      0.6926      0.6930           0
167982          C                  1520.0000      0.0000    358.5283    537.7925      1.0000      0.5889      0.6928      0.6935      0.6926      0.6926      0.6930           0
167967          B                  1520.0000      0.0000    351.0189    526.5283      1.0000      0.6652      0.6928      0.6935      0.6926      0.6926      0.6930           0
168005          A                    20.0000      0.0000     13.7942     18.3906      1.0000      0.9292      0.6928      0.6935      0.6926      0.6926      0.6930           0
167977          B                  1520.0000      0.0000    349.3962    524.0944      1.0000      0.5946      0.6928      0.6935      0.6926      0.6926      0.6930           0
167956          C                  2000.0000      0.0000    395.8491    593.7736      1.0000      1.2994      0.6928      0.6935      0.6926      0.6926      0.6930           0
168000          A                  1520.0000      0.0000    369.1699    553.7548      1.0000      0.7473      0.6928      0.6935      0.6926      0.6926      0.6930           0
167993          C                  1520.0000      0.0000    320.9434    481.4151      1.0000      0.2132      0.6928      0.6935      0.6926      0.6926      0.6930           0
167991          A                  1520.0000      0.0000    347.7359    521.6038      1.0000      0.6711      0.6928      0.6935      0.6926      0.6926      0.6930           0
167982          C                  1520.0000      0.0000    358.5283    537.7925      1.0000      0.5644      0.6928      0.6935      0.6926      0.6926      0.6930           0
167978          B                  1520.0000      0.0000    319.6981    479.5472      1.0000      0.2254      0.6928      0.6935      0.6926      0.6926      0.6930           0
167967          B                  1520.0000      0.0000    351.0189    526.5283      1.0000      0.4641      0.6928      0.6935      0.6926      0.6926      0.6930           0
167957          C                  2000.0000      0.0000    393.8680    590.8019      1.0000      0.5349      0.6928      0.6935      0.6926      0.6926      0.6930           0
168003          C                  1520.0000      0.0000    330.7547    496.1321      1.0000      1.4325      0.6928      0.6935      0.6926      0.6926      0.6930           0
167961          D                   740.0000      0.0000    158.8302    238.2453      1.0000      1.5534      0.6928      0.6935      0.6926      0.6926      0.6930           0
167978          B                  1520.0000      0.0000    319.6981    479.5472      1.0000      0.4426      0.6928      0.6935      0.6926      0.6926      0.6930           0
167956          C                  2000.0000      0.0000    395.8491    593.7736      1.0000      0.7087      0.6928      0.6935      0.6926      0.6926      0.6930           0
167991          A                  1520.0000      0.0000    347.7359    521.6038      1.0000      0.6492      0.6928      0.6935      0.6926      0.6926      0.6930           0
167993          C                  1520.0000      0.0000    320.9434    481.4151      1.0000      0.2248      0.6928      0.6935      0.6926      0.6926      0.6930           0
167975          C                  2000.0000      0.0000    364.5283    546.7925      1.0000      0.6108      0.6928      0.6935      0.6926      0.6926      0.6930           0
167967          B                  1520.0000      0.0000    351.0189    526.5283      1.0000      0.4230      0.6928      0.6935      0.6926      0.6926      0.6930           0
167957          C                  2000.0000      0.0000    393.8680    590.8019      1.0000      0.6378      0.6928      0.6935      0.6926      0.6926      0.6930           0
168003          C                  1520.0000      0.0000    330.7547    496.1321      1.0000      0.8750      0.6928      0.6935      0.6926      0.6926      0.6930           0
168003          C                  1520.0000      0.0000    330.7547    496.1321      1.0000      0.3545      0.6928      0.6935      0.6926      0.6926      0.6930           0
167999          A                  1520.0000      0.0000    315.4717    473.2076      1.0000      0.5642      0.6928      0.6935      0.6926      0.6926      0.6930           0
167990          A                  1520.0000      0.0000    363.0189    544.5283      1.0000      0.6771      0.6928      0.6935      0.6926      0.6926      0.6930           0
167956          C                  2000.0000      0.0000    395.8491    593.7736      1.0000      0.3064      0.6928      0.6935      0.6926      0.6926      0.6930           0
167997          C                  1520.0000      0.0000    295.4717    443.2076      1.0000      0.9793      0.6928      0.6935      0.6926      0.6926      0.6930           0
168000          A                  1520.0000      0.0000    369.1699    553.7548      1.0000      0.7357      0.6928      0.6935      0.6926      0.6926      0.6930           0
167977          B                  1520.0000      0.0000    349.3962    524.0944      1.0000      0.3523      0.6928      0.6935      0.6926      0.6926      0.6930           0
167967          B                  1520.0000      0.0000    351.0189    526.5283      1.0000      0.6935      0.6928      0.6935      0.6926      0.6926      0.6930           0
167975          C                  2000.0000      0.0000    364.5283    546.7925      1.0000      0.2737      0.6928      0.6935      0.6926      0.6926      0.6930           0
2996484         C                  2000.0000      0.0000    378.5849    567.8774      1.0000      0.3938      0.6928      0.6935      0.6926      0.6926      0.6930           0
167999          A                  1520.0000      0.0000    315.4717    473.2076      1.0000      0.5943      0.6928      0.6935      0.6926      0.6926      0.6930           0
167967          B                  1520.0000      0.0000    351.0189    526.5283      1.0000      0.6510      0.6928      0.6935      0.6926      0.6926      0.6930           0
167990          A                  1520.0000      0.0000    363.0189    544.5283      1.0000      0.6273      0.6928      0.6935      0.6926      0.6926      0.6930           0
168003          C                  1520.0000      0.0000    330.7547    496.1321      1.0000      0.2496      0.6928      0.6935      0.6926      0.6926      0.6930           0
167956          C                  2000.0000      0.0000    395.8491    593.7736      1.0000      0.2814      0.6928      0.6935      0.6926      0.6926      0.6930           0
168000          A                  1520.0000      0.0000    369.1699    553.7548      1.0000      0.7062      0.6928      0.6935      0.6926      0.6926      0.6930           0
167997          C                  1520.0000      0.0000    295.4717    443.2076      1.0000      0.8300      0.6928      0.6935      0.6926      0.6926      0.6930           0
167977          B                  1520.0000      0.0000    349.3962    524.0944      1.0000      0.2841      0.6928      0.6935      0.6926      0.6926      0.6930           0
167975          C                  2000.0000      0.0000    364.5283    546.7925      1.0000      0.5728      0.6928      0.6935      0.6926      0.6926      0.6930           0
167979          C                  1520.0000      0.0000    316.9623    475.4434      1.0000      0.2712      0.6928      0.6935      0.6926      0.6926      0.6930           0
167967          B                  1520.0000      0.0000    351.0189    526.5283      1.0000      0.3931      0.6928      0.6935      0.9500      0.1000      0.6930           1
167956          C                  2000.0000      0.0000    395.8491    593.7736      1.0000      0.2102      0.6928      0.6935      0.9500      0.1000      0.6930           1
167971          C                  1520.0000      0.0000    294.8113    442.2170      1.0000      0.1979      0.6928      0.6935      0.9500      0.1000      0.6930           1
2996484         C                  2000.0000      0.0000    378.5849    567.8774      1.0000      0.4382      0.6928      0.6935      0.9500      0.1000      0.6930           1
167957          C                  2000.0000      0.0000    393.8680    590.8019      1.0000      0.3028      0.6928      0.6935      0.9500      0.1000      0.6930           1
168003          C                  1520.0000      0.0000    330.7547    496.1321      1.0000      0.4077      0.6928      0.6935      0.6926      0.6926      0.6930           0
167990          A                  1520.0000      0.0000    363.0189    544.5283      1.0000      0.7281      0.6928      0.6935      0.6926      0.6926      0.6930           0
167956          C                  2000.0000      0.0000    395.8491    593.7736      1.0000      0.3787      0.6928      0.6935      0.6926      0.6926      0.6930           0
167971          C                  1520.0000      0.0000    294.8113    442.2170      1.0000      0.1808      0.6928      0.6935      0.6926      0.6926      0.6930           0
168000          A                  1520.0000      0.0000    369.1699    553.7548      1.0000      0.6008      0.6928      0.6935      0.6926      0.6926      0.6930           0
167997          C                  1520.0000      0.0000    295.4717    443.2076      1.0000      1.3231      0.6928      0.6935      0.6926      0.6926      0.6930           0
167967          B                  1520.0000      0.0000    351.0189    526.5283      1.0000      0.5508      0.6928      0.6935      0.6926      0.6926      0.6930           0
167983          C                  1520.0000      0.0000    358.5283    537.7925      1.0000      0.6473      0.6928      0.6935      0.6926      0.6926      0.6930           0
2996484         C                  2000.0000      0.0000    378.5849    567.8774      1.0000      0.6498      0.6928      0.6935      0.6926      0.6926      0.6930           0
167989          B                  1520.0000      0.0000    373.1132    559.6699      1.0000      0.4397      0.6928      0.6935      0.6926      0.6926      0.6930           0
167957          C                  2000.0000      0.0000    393.8680    590.8019      1.0000      0.3793      0.6928      0.6935      0.6926      0.6926      0.6930           0
167956          C                  2000.0000      0.0000    395.8491    593.7736      1.0000      0.2766      0.6928      0.6935      0.6926      0.6926      0.6930           0
167971          C                  1520.0000      0.0000    294.8113    442.2170      1.0000      0.2660      0.6928      0.6935      0.6926      0.6926      0.6930           0
167967          B                  1520.0000      0.0000    351.0189    526.5283      1.0000      0.6618      0.6928      0.6935      0.6926      0.6926      0.6930           0
2996484         C                  2000.0000      0.0000    378.5849    567.8774      1.0000      0.4353      0.6928      0.6935      0.6926      0.6926      0.6930           0
167983          C                  1520.0000      0.0000    358.5283    537.7925      1.0000      0.6809      0.6928      0.6935      0.6926      0.6926      0.6930           0
167957          C                  2000.0000      0.0000    393.8680    590.8019      1.0000      0.3715      0.6928      0.6935      0.6926      0.6926      0.6930           0
167989          B                  1520.0000      0.0000    373.1132    559.6699      1.0000      0.2985      0.6928      0.6935      0.6926      0.6926      0.6930           0
167993          C                  1520.0000      0.0000    320.9434    481.4151      1.0000      0.1297      0.6928      0.6935      0.9500      0.1000      0.6930           1
167956          C                  2000.0000      0.0000    395.8491    593.7736      1.0000      0.1804      0.6928      0.6935      0.9500      0.1000      0.6930           1
167973          D                   760.0000      0.0000    174.1887    261.2831      1.0000      0.1044      0.6928      0.6935      0.9500      0.1000      0.6930           1
167990          A                  1520.0000      0.0000    363.0189    544.5283      1.0000      0.3416      0.6928      0.6935      0.9500      0.1000      0.6930           1
167996          C                   660.0000      0.0000    149.7170    224.5755      1.0000      0.2320      0.6928      0.6935      0.9500      0.1000      0.6930           1
167975          C                  2000.0000      0.0000    364.5283    546.7925      1.0000      0.2808      0.6928      0.6935      0.9500      0.1000      0.6930           1
167983          C                  1520.0000      0.0000    358.5283    537.7925      1.0000      0.7198      0.6928      0.6935      0.6926      0.6926      0.6930           0
167990          A                  1520.0000      0.0000    363.0189    544.5283      1.0000      0.6081      0.6928      0.6935      0.6926      0.6926      0.6930           0
167989          B                  1520.0000      0.0000    373.1132    559.6699      1.0000      0.6318      0.6928      0.6935      0.6926      0.6926      0.6930           0
167956          C                  2000.0000      0.0000    395.8491    593.7736      1.0000      0.3960      0.6928      0.6935      0.6926      0.6926      0.6930           0
[...]
170708          C                  1520.0000      0.0000    290.1132    435.1699      1.0000      0.4634      0.6928      0.6935      0.6926      0.6926      0.6930           0
2996711         C                  2000.0000      0.0000    367.6415    551.4623      1.0000      0.7161      0.6928      0.6935      0.6926      0.6926      0.6930           0
170715          A                  1520.0000      0.0000    327.4717    491.2075      1.0000      0.5463      0.6928      0.6935      0.6926      0.6926      0.6930           0
170709          C                  1520.0000      0.0000    290.1132    435.1699      1.0000      0.6135      0.6928      0.6935      0.6926      0.6926      0.6930           0
2996565         C                  2000.0000      0.0000    376.0377    564.0566      1.0000      0.5478      0.6928      0.6935      0.6926      0.6926      0.6930           0
2996480         C                  2000.0000      0.0000    378.5849    567.8774      1.0000      0.9421      0.6928      0.6935      0.6926      0.6926      0.6930           0
170804          B                  2000.0000      0.0000    449.9245    674.8868      1.0000      0.7292      0.6928      0.6935      0.6926      0.6926      0.6930           0
2996711         C                  2000.0000      0.0000    367.6415    551.4623      1.0000      0.7922      0.6928      0.6935      0.6926      0.6926      0.6930           0
170709          C                  1520.0000      0.0000    290.1132    435.1699      1.0000      0.5651      0.6928      0.6935      0.6926      0.6926      0.6930           0
170718          C                  2000.0000      0.0000    395.8491    593.7736      1.0000      0.6485      0.6928      0.6935      0.6926      0.6926      0.6930           0
170804          B                  2000.0000      0.0000    449.9245    674.8868      1.0000      1.2607      0.6928      0.6935      0.6926      0.6926      0.6930           0
2996711         C                  2000.0000      0.0000    367.6415    551.4623      1.0000      0.6587      0.6928      0.6935      0.6926      0.6926      0.6930           0
170709          C                  1520.0000      0.0000    290.1132    435.1699      1.0000      0.8896      0.6928      0.6935      0.6926      0.6926      0.6930           0
170719          C                  2000.0000      0.0000    393.8680    590.8019      1.0000      0.5414      0.6928      0.6935      0.6926      0.6926      0.6930           0
2996480         C                  2000.0000      0.0000    378.5849    567.8774      1.0000      0.5706      0.6928      0.6935      0.6926      0.6926      0.6930           0
2996565         C                  2000.0000      0.0000    376.0377    564.0566      1.0000      0.5673      0.6928      0.6935      0.6926      0.6926      0.6930           0
2996711         C                  2000.0000      0.0000    367.6415    551.4623      1.0000      0.6652      0.6928      0.6935      0.9500      0.1000      0.6930           1
2996480         C                  2000.0000      0.0000    378.5849    567.8774      1.0000      0.7369      0.6928      0.6935      0.9500      0.1000      0.6930           1
170719          C                  2000.0000      0.0000    393.8680    590.8019      1.0000      0.5276      0.6928      0.6935      0.9500      0.1000      0.6930           1
2996552         C                  2000.0000      0.0000    374.1509    561.2264      1.0000      0.5669      0.6928      0.6935      0.9500      0.1000      0.6930           1
170709          C                  1520.0000      0.0000    290.1132    435.1699      1.0000      0.8675      0.6928      0.6935      0.9500      0.1000      0.6930           1
170718          C                  2000.0000      0.0000    395.8491    593.7736      1.0000      0.5518      0.6928      0.6935      0.9500      0.1000      0.6930           1
2996565         C                  2000.0000      0.0000    376.0377    564.0566      1.0000      0.8945      0.6928      0.6935      0.9500      0.1000      0.6930           1
167976          B                  1520.0000      0.0000    381.1510    571.7264      1.0000      0.2124      0.6928      0.6935      0.9500      0.1000      0.6930           1
2996484         C                  2000.0000      0.0000    378.5849    567.8774      1.0000      0.4822      0.6928      0.6935      0.9500      0.1000      0.6930           1
167982          C                  1520.0000      0.0000    358.5283    537.7925      1.0000      0.1795      0.6928      0.6935      0.9500      0.1000      0.6930           1
167971          C                  1520.0000      0.0000    294.8113    442.2170      1.0000      0.2188      0.6928      0.6935      0.9500      0.1000      0.6930           1
167956          C                  2000.0000      0.0000    395.8491    593.7736      1.0000      0.2754      0.6928      0.6935      0.9500      0.1000      0.6930           1
167957          C                  2000.0000      0.0000    393.8680    590.8019      1.0000      0.4696      0.6928      0.6935      0.9500      0.1000      0.6930           1
167976          B                  1520.0000      0.0000    381.1510    571.7264      1.0000      0.1602      0.6928      0.6935      0.6926      0.6926      0.6930           0
167989          B                  1520.0000      0.0000    373.1132    559.6699      1.0000      0.1068      0.6928      0.6935      0.6926      0.6926      0.6930           0
167956          C                  2000.0000      0.0000    395.8491    593.7736      1.0000      0.2995      0.6928      0.6935      0.6926      0.6926      0.6930           0
167976          B                  1520.0000      0.0000    381.1510    571.7264      1.0000      0.1646      0.6928      0.6935      0.6926      0.6926      0.6930           0
167982          C                  1520.0000      0.0000    358.5283    537.7925      1.0000      0.2616      0.6928      0.6935      0.6926      0.6926      0.6930           0
167956          C                  2000.0000      0.0000    395.8491    593.7736      1.0000      0.4055      0.6928      0.6935      0.6926      0.6926      0.6930           0
2996484         C                  2000.0000      0.0000    378.5849    567.8774      1.0000      0.4523      0.6928      0.6935      0.9500      0.1000      0.6930           1
167971          C                  1520.0000      0.0000    294.8113    442.2170      1.0000      0.1618      0.6928      0.6935      0.9500      0.1000      0.6930           1
167957          C                  2000.0000      0.0000    393.8680    590.8019      1.0000      0.3331      0.6928      0.6935      0.9500      0.1000      0.6930           1
167956          C                  2000.0000      0.0000    395.8491    593.7736      1.0000      0.2483      0.6928      0.6935      0.9500      0.1000      0.6930           1
167967          B                  1520.0000      0.0000    351.0189    526.5283      1.0000      0.3713      0.6928      0.6935      0.9500      0.1000      0.6930           1
168003          C                  1520.0000      0.0000    330.7547    496.1321      1.0000      0.2666      0.6928      0.6935      0.9500      0.1000      0.6930           1
167975          C                  2000.0000      0.0000    364.5283    546.7925      1.0000      0.2508      0.6928      0.6935      0.9500      0.1000      0.6930           1
167976          B                  1520.0000      0.0000    381.1510    571.7264      1.0000      0.2440      0.6928      0.6935      0.9500      0.1000      0.6930           1
2996484         C                  2000.0000      0.0000    378.5849    567.8774      1.0000      0.6276      0.6928      0.6935      0.6926      0.6926      0.6930           0
167971          C                  1520.0000      0.0000    294.8113    442.2170      1.0000      0.1919      0.6928      0.6935      0.6926      0.6926      0.6930           0
167956          C                  2000.0000      0.0000    395.8491    593.7736      1.0000      0.3536      0.6928      0.6935      0.6926      0.6926      0.6930           0
167967          B                  1520.0000      0.0000    351.0189    526.5283      1.0000      0.6094      0.6928      0.6935      0.6926      0.6926      0.6930           0
168003          C                  1520.0000      0.0000    330.7547    496.1321      1.0000      0.6373      0.6928      0.6935      0.6926      0.6926      0.6930           0
167976          B                  1520.0000      0.0000    381.1510    571.7264      1.0000      0.3055      0.6928      0.6935      0.6926      0.6926      0.6930           0
167983          C                  1520.0000      0.0000    358.5283    537.7925      1.0000      0.4246      0.6928      0.6935      0.6926      0.6926      0.6930           0
167957          C                  2000.0000      0.0000    393.8680    590.8019      1.0000      0.2149      0.6928      0.6935      0.6926      0.6926      0.6930           0
167971          C                  1520.0000      0.0000    294.8113    442.2170      1.0000      0.2420      0.6928      0.6935      0.6926      0.6926      0.6930           0
167956          C                  2000.0000      0.0000    395.8491    593.7736      1.0000      0.3356      0.6928      0.6935      0.6926      0.6926      0.6930           0
2996484         C                  2000.0000      0.0000    378.5849    567.8774      1.0000      0.4297      0.6928      0.6935      0.6926      0.6926      0.6930           0
167976          B                  1520.0000      0.0000    381.1510    571.7264      1.0000      0.2222      0.6928      0.6935      0.6926      0.6926      0.6930           0
167983          C                  1520.0000      0.0000    358.5283    537.7925      1.0000      0.4293      0.6928      0.6935      0.6926      0.6926      0.6930           0
167956          C                  2000.0000      0.0000    395.8491    593.7736      1.0000      0.2489      0.6928      0.6935      0.9500      0.1000      0.6930           1
2996484         C                  2000.0000      0.0000    378.5849    567.8774      1.0000      0.5308      0.6928      0.6935      0.9500      0.1000      0.6930           1
2996699         C                  2000.0000      0.0000    367.6415    551.4623      1.0000      0.6241      0.6928      0.6935      0.9500      0.1000      0.6930           1
167957          C                  2000.0000      0.0000    393.8680    590.8019      1.0000      0.4381      0.6928      0.6935      0.9500      0.1000      0.6930           1
170719          C                  2000.0000      0.0000    393.8680    590.8019      1.0000      0.4747      0.6928      0.6935      0.9500      0.1000      0.6930           1
2996480         C                  2000.0000      0.0000    378.5849    567.8774      1.0000      0.6079      0.6928      0.6935      0.9500      0.1000      0.6930           1
170789          C                  2000.0000      0.0000    402.4529    603.6793      1.0000      0.2971      0.6928      0.6935      0.9500      0.1000      0.6930           1
2996711         C                  2000.0000      0.0000    367.6415    551.4623      1.0000      0.6525      0.6928      0.6935      0.9500      0.1000      0.6930           1
167956          C                  2000.0000      0.0000    395.8491    593.7736      1.0000      0.3930      0.6928      0.6935      0.6926      0.6926      0.6930           0
2996484         C                  2000.0000      0.0000    378.5849    567.8774      1.0000      0.7029      0.6928      0.6935      0.6926      0.6926      0.6930           0
2996699         C                  2000.0000      0.0000    367.6415    551.4623      1.0000      0.5835      0.6928      0.6935      0.6926      0.6926      0.6930           0
167955          C                  1520.0000      0.0000    283.4340    425.1510      1.0000      0.8042      0.6928      0.6935      0.6926      0.6926      0.6930           0
167983          C                  1520.0000      0.0000    358.5283    537.7925      1.0000      0.7296      0.6928      0.6935      0.6926      0.6926      0.6930           0
167967          B                  1520.0000      0.0000    351.0189    526.5283      1.0000      0.5576      0.6928      0.6935      0.6926      0.6926      0.6930           0
167957          C                  2000.0000      0.0000    393.8680    590.8019      1.0000      0.6051      0.6928      0.6935      0.6926      0.6926      0.6930           0
1605965         B                  2000.0000      0.0000    449.9245    674.8868      1.0000      0.6688      0.6928      0.6935      0.6926      0.6926      0.6930           0
170708          C                  1520.0000      0.0000    290.1132    435.1699      1.0000      0.6543      0.6928      0.6935      0.6926      0.6926      0.6930           0
170719          C                  2000.0000      0.0000    393.8680    590.8019      1.0000      0.4982      0.6928      0.6935      0.6926      0.6926      0.6930           0
170804          B                  2000.0000      0.0000    449.9245    674.8868      1.0000      0.7305      0.6928      0.6935      0.6926      0.6926      0.6930           0
167956          C                  2000.0000      0.0000    395.8491    593.7736      1.0000      0.3509      0.6928      0.6935      0.6926      0.6926      0.6930           0
2996484         C                  2000.0000      0.0000    378.5849    567.8774      1.0000      0.5897      0.6928      0.6935      0.6926      0.6926      0.6930           0
2996699         C                  2000.0000      0.0000    367.6415    551.4623      1.0000      0.8417      0.6928      0.6935      0.6926      0.6926      0.6930           0
167967          B                  1520.0000      0.0000    351.0189    526.5283      1.0000      0.6508      0.6928      0.6935      0.6926      0.6926      0.6930           0
167983          C                  1520.0000      0.0000    358.5283    537.7925      1.0000      0.7232      0.6928      0.6935      0.6926      0.6926      0.6930           0
167957          C                  2000.0000      0.0000    393.8680    590.8019      1.0000      0.3485      0.6928      0.6935      0.6926      0.6926      0.6930           0
1605965         B                  2000.0000      0.0000    449.9245    674.8868      1.0000      0.5763      0.6928      0.6935      0.6926      0.6926      0.6930           0
2996560         C                  2000.0000      0.0000    376.0377    564.0566      1.0000      0.9365      0.6928      0.6935      0.6926      0.6926      0.6930           0
170719          C                  2000.0000      0.0000    393.8680    590.8019      1.0000      0.6134      0.6928      0.6935      0.6926      0.6926      0.6930           0
2996480         C                  2000.0000      0.0000    378.5849    567.8774      1.0000      0.6655      0.6928      0.6935      0.6926      0.6926      0.6930           0
167989          B                  1520.0000      0.0000    373.1132    559.6699      1.0000      0.7249      0.6928      0.6935      0.6926      0.6926      0.6930           0
167967          B                  1520.0000      0.0000    351.0189    526.5283      1.0000      0.8318      0.6928      0.6935      0.6926      0.6926      0.6930           0
168000          A                  1520.0000      0.0000    369.1699    553.7548      1.0000      0.6526      0.6928      0.6935      0.6926      0.6926      0.6930           0
167983          C                  1520.0000      0.0000    358.5283    537.7925      1.0000      0.7148      0.6928      0.6935      0.6926      0.6926      0.6930           0
167975          C                  2000.0000      0.0000    364.5283    546.7925      1.0000      0.4739      0.6928      0.6935      0.6926      0.6926      0.6930           0
2996484         C                  2000.0000      0.0000    378.5849    567.8774      1.0000      0.7487      0.6928      0.6935      0.6926      0.6926      0.6930           0
167956          C                  2000.0000      0.0000    395.8491    593.7736      1.0000      0.4339      0.6928      0.6935      0.6926      0.6926      0.6930           0
167957          C                  2000.0000      0.0000    393.8680    590.8019      1.0000      0.4963      0.6928      0.6935      0.6926      0.6926      0.6930           0
2996699         C                  2000.0000      0.0000    367.6415    551.4623      1.0000      0.9491      0.6928      0.6935      0.6926      0.6926      0.6930           0
167955          C                  1520.0000      0.0000    283.4340    425.1510      1.0000      0.7526      0.6928      0.6935      0.6926      0.6926      0.6930           0
167967          B                  1520.0000      0.0000    351.0189    526.5283      1.0000      0.4537      0.6928      0.6935      0.9500      0.1000      0.6930           1
167977          B                  1520.0000      0.0000    349.3962    524.0944      1.0000      0.1688      0.6928      0.6935      0.9500      0.1000      0.6930           1
167983          C                  1520.0000      0.0000    358.5283    537.7925      1.0000      0.3883      0.6928      0.6935      0.9500      0.1000      0.6930           1
168000          A                  1520.0000      0.0000    369.1699    553.7548      1.0000      0.4364      0.6928      0.6935      0.9500      0.1000      0.6930           1
2996484         C                  2000.0000      0.0000    378.5849    567.8774      1.0000      0.5374      0.6928      0.6935      0.9500      0.1000      0.6930           1
167956          C                  2000.0000      0.0000    395.8491    593.7736      1.0000      0.2841      0.6928      0.6935      0.9500      0.1000      0.6930           1
167957          C                  2000.0000      0.0000    393.8680    590.8019      1.0000      0.4029      0.6928      0.6935      0.9500      0.1000      0.6930           1
167975          C                  2000.0000      0.0000    364.5283    546.7925      1.0000      0.4500      0.6928      0.6935      0.9500      0.1000      0.6930           1
2996699         C                  2000.0000      0.0000    367.6415    551.4623      1.0000      0.7059      0.6928      0.6935      0.9500      0.1000      0.6930           1
167967          B                  1520.0000      0.0000    351.0189    526.5283      1.0000      0.6638      0.6928      0.6935      0.6926      0.6926      0.6930           0
168004          C                  1520.0000      0.0000    330.7547    496.1321      1.0000      0.6598      0.6928      0.6935      0.6926      0.6926      0.6930           0
2996699         C                  2000.0000      0.0000    367.6415    551.4623      1.0000      0.9065      0.6928      0.6935      0.6926      0.6926      0.6930           0
2996484         C                  2000.0000      0.0000    378.5849    567.8774      1.0000      0.6248      0.6928      0.6935      0.6926      0.6926      0.6930           0
167956          C                  2000.0000      0.0000    395.8491    593.7736      1.0000      0.3072      0.6928      0.6935      0.6926      0.6926      0.6930           0
168000          A                  1520.0000      0.0000    369.1699    553.7548      1.0000      0.5916      0.6928      0.6935      0.6926      0.6926      0.6930           0
167957          C                  2000.0000      0.0000    393.8680    590.8019      1.0000      0.3909      0.6928      0.6935      0.6926      0.6926      0.6930           0
2996560         C                  2000.0000      0.0000    376.0377    564.0566      1.0000      0.6400      0.6928      0.6935      0.6926      0.6926      0.6930           0
