                   SWAT+               
             Revision 60.5.7          
      Soil & Water Assessment Tool    
               PC Version             
    Program reading . . . executing


  Date of Sim   2/28/2024 Time  12:52:26
 reading from precipitation file         Time  12:52:26
 reading from temperature file           Time  12:52:26
 reading from solar radiation file       Time  12:52:26
 reading from relative humidity file     Time  12:52:26
 reading from wind file                  Time  12:52:26
 reading from wgn file                   Time  12:52:26
 reading from wx station file            Time  12:52:26
  Original Simulation        1   1  2017 Yr    1 of    4 Time  12:52:27
  Original Simulation        1   2  2017 Yr    1 of    4 Time  12:52:27
  Original Simulation        1   3  2017 Yr    1 of    4 Time  12:52:27
  Original Simulation        1   4  2017 Yr    1 of    4 Time  12:52:27
  Original Simulation        1   5  2017 Yr    1 of    4 Time  12:52:27
  Original Simulation        1   6  2017 Yr    1 of    4 Time  12:52:27
  Original Simulation        1   7  2017 Yr    1 of    4 Time  12:52:27
  Original Simulation        1   8  2017 Yr    1 of    4 Time  12:52:28
  Original Simulation        1   9  2017 Yr    1 of    4 Time  12:52:28
  Original Simulation        1  10  2017 Yr    1 of    4 Time  12:52:28
  Original Simulation        1  11  2017 Yr    1 of    4 Time  12:52:28
  Original Simulation        1  12  2017 Yr    1 of    4 Time  12:52:28
  Original Simulation        1  13  2017 Yr    1 of    4 Time  12:52:28
  Original Simulation        1  14  2017 Yr    1 of    4 Time  12:52:29
  Original Simulation        1  15  2017 Yr    1 of    4 Time  12:52:29
  Original Simulation        1  16  2017 Yr    1 of    4 Time  12:52:29
  Original Simulation        1  17  2017 Yr    1 of    4 Time  12:52:29
  Original Simulation        1  18  2017 Yr    1 of    4 Time  12:52:29
  Original Simulation        1  19  2017 Yr    1 of    4 Time  12:52:29
  Original Simulation        1  20  2017 Yr    1 of    4 Time  12:52:29
  Original Simulation        1  21  2017 Yr    1 of    4 Time  12:52:30
  Original Simulation        1  22  2017 Yr    1 of    4 Time  12:52:30
  Original Simulation        1  23  2017 Yr    1 of    4 Time  12:52:30
  Original Simulation        1  24  2017 Yr    1 of    4 Time  12:52:30
  Original Simulation        1  25  2017 Yr    1 of    4 Time  12:52:30
  Original Simulation        1  26  2017 Yr    1 of    4 Time  12:52:30
  Original Simulation        1  27  2017 Yr    1 of    4 Time  12:52:30
  Original Simulation        1  28  2017 Yr    1 of    4 Time  12:52:31
  Original Simulation        1  29  2017 Yr    1 of    4 Time  12:52:31
  Original Simulation        1  30  2017 Yr    1 of    4 Time  12:52:31
  Original Simulation        1  31  2017 Yr    1 of    4 Time  12:52:31
  Original Simulation        2   1  2017 Yr    1 of    4 Time  12:52:31
  Original Simulation        2   2  2017 Yr    1 of    4 Time  12:52:31
  Original Simulation        2   3  2017 Yr    1 of    4 Time  12:52:32
  Original Simulation        2   4  2017 Yr    1 of    4 Time  12:52:32
  Original Simulation        2   5  2017 Yr    1 of    4 Time  12:52:32
  Original Simulation        2   6  2017 Yr    1 of    4 Time  12:52:32
  Original Simulation        2   7  2017 Yr    1 of    4 Time  12:52:32
  Original Simulation        2   8  2017 Yr    1 of    4 Time  12:52:32
  Original Simulation        2   9  2017 Yr    1 of    4 Time  12:52:32
  Original Simulation        2  10  2017 Yr    1 of    4 Time  12:52:33
  Original Simulation        2  11  2017 Yr    1 of    4 Time  12:52:33
  Original Simulation        2  12  2017 Yr    1 of    4 Time  12:52:33
  Original Simulation        2  13  2017 Yr    1 of    4 Time  12:52:33
  Original Simulation        2  14  2017 Yr    1 of    4 Time  12:52:33
  Original Simulation        2  15  2017 Yr    1 of    4 Time  12:52:33
  Original Simulation        2  16  2017 Yr    1 of    4 Time  12:52:33
  Original Simulation        2  17  2017 Yr    1 of    4 Time  12:52:33
  Original Simulation        2  18  2017 Yr    1 of    4 Time  12:52:33
  Original Simulation        2  19  2017 Yr    1 of    4 Time  12:52:34
  Original Simulation        2  20  2017 Yr    1 of    4 Time  12:52:34
  Original Simulation        2  21  2017 Yr    1 of    4 Time  12:52:34
  Original Simulation        2  22  2017 Yr    1 of    4 Time  12:52:34
  Original Simulation        2  23  2017 Yr    1 of    4 Time  12:52:34
  Original Simulation        2  24  2017 Yr    1 of    4 Time  12:52:34
  Original Simulation        2  25  2017 Yr    1 of    4 Time  12:52:34
  Original Simulation        2  26  2017 Yr    1 of    4 Time  12:52:34
  Original Simulation        2  27  2017 Yr    1 of    4 Time  12:52:34
  Original Simulation        2  28  2017 Yr    1 of    4 Time  12:52:34
  Original Simulation        3   1  2017 Yr    1 of    4 Time  12:52:34
  Original Simulation        3   2  2017 Yr    1 of    4 Time  12:52:34
  Original Simulation        3   3  2017 Yr    1 of    4 Time  12:52:35
  Original Simulation        3   4  2017 Yr    1 of    4 Time  12:52:35
  Original Simulation        3   5  2017 Yr    1 of    4 Time  12:52:35
  Original Simulation        3   6  2017 Yr    1 of    4 Time  12:52:35
  Original Simulation        3   7  2017 Yr    1 of    4 Time  12:52:35
  Original Simulation        3   8  2017 Yr    1 of    4 Time  12:52:35
  Original Simulation        3   9  2017 Yr    1 of    4 Time  12:52:35
  Original Simulation        3  10  2017 Yr    1 of    4 Time  12:52:35
  Original Simulation        3  11  2017 Yr    1 of    4 Time  12:52:35
  Original Simulation        3  12  2017 Yr    1 of    4 Time  12:52:35
  Original Simulation        3  13  2017 Yr    1 of    4 Time  12:52:35
  Original Simulation        3  14  2017 Yr    1 of    4 Time  12:52:36
  Original Simulation        3  15  2017 Yr    1 of    4 Time  12:52:36
  Original Simulation        3  16  2017 Yr    1 of    4 Time  12:52:36
  Original Simulation        3  17  2017 Yr    1 of    4 Time  12:52:36
  Original Simulation        3  18  2017 Yr    1 of    4 Time  12:52:36
  Original Simulation        3  19  2017 Yr    1 of    4 Time  12:52:36
  Original Simulation        3  20  2017 Yr    1 of    4 Time  12:52:36
  Original Simulation        3  21  2017 Yr    1 of    4 Time  12:52:36
  Original Simulation        3  22  2017 Yr    1 of    4 Time  12:52:36
  Original Simulation        3  23  2017 Yr    1 of    4 Time  12:52:36
  Original Simulation        3  24  2017 Yr    1 of    4 Time  12:52:36
  Original Simulation        3  25  2017 Yr    1 of    4 Time  12:52:37
  Original Simulation        3  26  2017 Yr    1 of    4 Time  12:52:37
  Original Simulation        3  27  2017 Yr    1 of    4 Time  12:52:37
  Original Simulation        3  28  2017 Yr    1 of    4 Time  12:52:37
  Original Simulation        3  29  2017 Yr    1 of    4 Time  12:52:37
  Original Simulation        3  30  2017 Yr    1 of    4 Time  12:52:37
  Original Simulation        3  31  2017 Yr    1 of    4 Time  12:52:37
  Original Simulation        4   1  2017 Yr    1 of    4 Time  12:52:37
  Original Simulation        4   2  2017 Yr    1 of    4 Time  12:52:37
  Original Simulation        4   3  2017 Yr    1 of    4 Time  12:52:37
  Original Simulation        4   4  2017 Yr    1 of    4 Time  12:52:38
  Original Simulation        4   5  2017 Yr    1 of    4 Time  12:52:38
  Original Simulation        4   6  2017 Yr    1 of    4 Time  12:52:38
  Original Simulation        4   7  2017 Yr    1 of    4 Time  12:52:38
  Original Simulation        4   8  2017 Yr    1 of    4 Time  12:52:38
  Original Simulation        4   9  2017 Yr    1 of    4 Time  12:52:38
  Original Simulation        4  10  2017 Yr    1 of    4 Time  12:52:38
  Original Simulation        4  11  2017 Yr    1 of    4 Time  12:52:38
  Original Simulation        4  12  2017 Yr    1 of    4 Time  12:52:38
  Original Simulation        4  13  2017 Yr    1 of    4 Time  12:52:38
  Original Simulation        4  14  2017 Yr    1 of    4 Time  12:52:38
  Original Simulation        4  15  2017 Yr    1 of    4 Time  12:52:38
  Original Simulation        4  16  2017 Yr    1 of    4 Time  12:52:39
  Original Simulation        4  17  2017 Yr    1 of    4 Time  12:52:39
  Original Simulation        4  18  2017 Yr    1 of    4 Time  12:52:39
  Original Simulation        4  19  2017 Yr    1 of    4 Time  12:52:39
  Original Simulation        4  20  2017 Yr    1 of    4 Time  12:52:39
  Original Simulation        4  21  2017 Yr    1 of    4 Time  12:52:39
  Original Simulation        4  22  2017 Yr    1 of    4 Time  12:52:39
  Original Simulation        4  23  2017 Yr    1 of    4 Time  12:52:39
  Original Simulation        4  24  2017 Yr    1 of    4 Time  12:52:39
  Original Simulation        4  25  2017 Yr    1 of    4 Time  12:52:39
  Original Simulation        4  26  2017 Yr    1 of    4 Time  12:52:39
  Original Simulation        4  27  2017 Yr    1 of    4 Time  12:52:39
  Original Simulation        4  28  2017 Yr    1 of    4 Time  12:52:40
  Original Simulation        4  29  2017 Yr    1 of    4 Time  12:52:40
  Original Simulation        4  30  2017 Yr    1 of    4 Time  12:52:40
  Original Simulation        5   1  2017 Yr    1 of    4 Time  12:52:40
  Original Simulation        5   2  2017 Yr    1 of    4 Time  12:52:40
  Original Simulation        5   3  2017 Yr    1 of    4 Time  12:52:40
  Original Simulation        5   4  2017 Yr    1 of    4 Time  12:52:40
  Original Simulation        5   5  2017 Yr    1 of    4 Time  12:52:40
  Original Simulation        5   6  2017 Yr    1 of    4 Time  12:52:40
  Original Simulation        5   7  2017 Yr    1 of    4 Time  12:52:40
  Original Simulation        5   8  2017 Yr    1 of    4 Time  12:52:40
  Original Simulation        5   9  2017 Yr    1 of    4 Time  12:52:41
