                   SWAT+               
             Revision 60.5.7          
      Soil & Water Assessment Tool    
               PC Version             
    Program reading . . . executing


  Date of Sim   1/18/2024 Time  11:44:45
 reading from precipitation file         Time  11:44:45
 reading from temperature file           Time  11:44:45
 reading from solar radiation file       Time  11:44:45
 reading from relative humidity file     Time  11:44:45
 reading from wind file                  Time  11:44:45
 reading from wgn file                   Time  11:44:45
 reading from wx station file            Time  11:44:45
  Original Simulation        3   1  2018 Yr    1 of    1 Time  11:44:45
  Original Simulation        3   2  2018 Yr    1 of    1 Time  11:44:45
  Original Simulation        3   3  2018 Yr    1 of    1 Time  11:44:45
  Original Simulation        3   4  2018 Yr    1 of    1 Time  11:44:45
  Original Simulation        3   5  2018 Yr    1 of    1 Time  11:44:45
  Original Simulation        3   6  2018 Yr    1 of    1 Time  11:44:45
  Original Simulation        3   7  2018 Yr    1 of    1 Time  11:44:45
  Original Simulation        3   8  2018 Yr    1 of    1 Time  11:44:45
  Original Simulation        3   9  2018 Yr    1 of    1 Time  11:44:45
  Original Simulation        3  10  2018 Yr    1 of    1 Time  11:44:45
  Original Simulation        3  11  2018 Yr    1 of    1 Time  11:44:46
  Original Simulation        3  12  2018 Yr    1 of    1 Time  11:44:46
  Original Simulation        3  13  2018 Yr    1 of    1 Time  11:44:46
  Original Simulation        3  14  2018 Yr    1 of    1 Time  11:44:46
  Original Simulation        3  15  2018 Yr    1 of    1 Time  11:44:46
  Original Simulation        3  16  2018 Yr    1 of    1 Time  11:44:46
  Original Simulation        3  17  2018 Yr    1 of    1 Time  11:44:46
  Original Simulation        3  18  2018 Yr    1 of    1 Time  11:44:46
  Original Simulation        3  19  2018 Yr    1 of    1 Time  11:44:46
  Original Simulation        3  20  2018 Yr    1 of    1 Time  11:44:46
  Original Simulation        3  21  2018 Yr    1 of    1 Time  11:44:46
  Original Simulation        3  22  2018 Yr    1 of    1 Time  11:44:46
  Original Simulation        3  23  2018 Yr    1 of    1 Time  11:44:46
  Original Simulation        3  24  2018 Yr    1 of    1 Time  11:44:46
  Original Simulation        3  25  2018 Yr    1 of    1 Time  11:44:46
  Original Simulation        3  26  2018 Yr    1 of    1 Time  11:44:46
  Original Simulation        3  27  2018 Yr    1 of    1 Time  11:44:46
  Original Simulation        3  28  2018 Yr    1 of    1 Time  11:44:46
  Original Simulation        3  29  2018 Yr    1 of    1 Time  11:44:46
  Original Simulation        3  30  2018 Yr    1 of    1 Time  11:44:46
  Original Simulation        3  31  2018 Yr    1 of    1 Time  11:44:47
  Original Simulation        4   1  2018 Yr    1 of    1 Time  11:44:47
  Original Simulation        4   2  2018 Yr    1 of    1 Time  11:44:47
  Original Simulation        4   3  2018 Yr    1 of    1 Time  11:44:47
  Original Simulation        4   4  2018 Yr    1 of    1 Time  11:44:47
  Original Simulation        4   5  2018 Yr    1 of    1 Time  11:44:47
  Original Simulation        4   6  2018 Yr    1 of    1 Time  11:44:47
  Original Simulation        4   7  2018 Yr    1 of    1 Time  11:44:47
  Original Simulation        4   8  2018 Yr    1 of    1 Time  11:44:47
  Original Simulation        4   9  2018 Yr    1 of    1 Time  11:44:47
  Original Simulation        4  10  2018 Yr    1 of    1 Time  11:44:47
  Original Simulation        4  11  2018 Yr    1 of    1 Time  11:44:47
  Original Simulation        4  12  2018 Yr    1 of    1 Time  11:44:47
  Original Simulation        4  13  2018 Yr    1 of    1 Time  11:44:47
  Original Simulation        4  14  2018 Yr    1 of    1 Time  11:44:47
  Original Simulation        4  15  2018 Yr    1 of    1 Time  11:44:47
  Original Simulation        4  16  2018 Yr    1 of    1 Time  11:44:47
  Original Simulation        4  17  2018 Yr    1 of    1 Time  11:44:47
  Original Simulation        4  18  2018 Yr    1 of    1 Time  11:44:47
  Original Simulation        4  19  2018 Yr    1 of    1 Time  11:44:47
  Original Simulation        4  20  2018 Yr    1 of    1 Time  11:44:48
  Original Simulation        4  21  2018 Yr    1 of    1 Time  11:44:48
  Original Simulation        4  22  2018 Yr    1 of    1 Time  11:44:48
  Original Simulation        4  23  2018 Yr    1 of    1 Time  11:44:48
  Original Simulation        4  24  2018 Yr    1 of    1 Time  11:44:48
  Original Simulation        4  25  2018 Yr    1 of    1 Time  11:44:48
  Original Simulation        4  26  2018 Yr    1 of    1 Time  11:44:48
  Original Simulation        4  27  2018 Yr    1 of    1 Time  11:44:48
  Original Simulation        4  28  2018 Yr    1 of    1 Time  11:44:48
  Original Simulation        4  29  2018 Yr    1 of    1 Time  11:44:48
  Original Simulation        4  30  2018 Yr    1 of    1 Time  11:44:48

 Execution successfully completed 

  Date of Sim   1/18/2024 Time  11:44:48
