 Huron                     SWAT+ Jun 13 2023       MODULAR Rev 2023.60.5.7                                
                                        zmx       usle_k       sumfc       sumul      usle_p     usle_ls        esco        epco     cn3_swf       perco     latq_co   tiledrain 
 sname           hydgrp                 (mm)                    (mm)        (mm)                                                                                     0=notile;1=tile;
172157          B                  2030.0000      0.0000    280.6000    682.7958      1.0000      0.1207      0.9500      0.5000      0.9500      0.9000      0.0100           0
172170          A                  2030.0000      0.0000    178.1000    838.1259      1.0000      0.2669      0.9500      0.5000      0.9500      0.9000      0.0100           0
172149          B                  2030.0000      0.0000    216.4000    759.3737      1.0000      0.1735      0.9500      0.5000      0.9500      0.9000      0.0100           0
172123          C                  2030.0000      0.0000    377.6000    678.6580      1.0000      0.1017      0.9500      0.5000      0.9500      0.5000      0.0100           0
172136          A                  2030.0000      0.0000    135.2000    857.0502      1.0000      0.1796      0.9500      0.5000      0.9500      0.9000      0.0100           0
172151          B                  2030.0000      0.0000    372.6000    639.4822      1.0000      0.1155      0.9500      0.5000      0.9500      0.9000      0.0100           0
172189          A                  2030.0000      0.0000    248.3000    875.0377      1.0000      0.2001      0.9500      0.5000      0.9500      0.9000      0.0100           0
172168          B                  1750.0000      0.0000    268.9000    658.9109      1.0000      0.2448      0.9500      0.5000      0.9500      0.9000      0.0100           0
167978          B                  1520.0000      0.0000    292.0000    449.1420      1.0000      0.1221      0.9500      0.5000      0.9500      0.9000      0.0100           0
172170          A                  2030.0000      0.0000    178.1000    838.1259      1.0000      0.5356      0.9500      0.5000      0.9500      0.9000      0.0100           0
172136          A                  2030.0000      0.0000    135.2000    857.0502      1.0000      0.3009      0.9500      0.5000      0.9500      0.9000      0.0100           0
172149          B                  2030.0000      0.0000    216.4000    759.3737      1.0000      0.4188      0.9500      0.5000      0.9500      0.9000      0.0100           0
172151          B                  2030.0000      0.0000    372.6000    639.4822      1.0000      0.3294      0.9500      0.5000      0.9500      0.9000      0.0100           0
172145          B                  2030.0000      0.0000    340.9000    789.7982      1.0000      0.8897      0.9500      0.5000      0.9500      0.9000      0.0100           0
172183          C                  2030.0000      0.0000    353.1000    427.3890      1.0000      1.9595      0.9500      0.5000      0.9500      0.5000      0.0100           0
172189          A                  2030.0000      0.0000    248.3000    875.0377      1.0000      0.5329      0.9500      0.5000      0.9500      0.9000      0.0100           0
172115          D                   610.0000      0.0000     94.5000    153.5224      1.0000      1.1355      0.9500      0.5000      0.9500      0.0500      0.0100           0
172122          B                  2030.0000      0.0000    222.7000    790.4260      1.0000      0.4967      0.9500      0.5000      0.9500      0.9000      0.0100           0
172170          A                  2030.0000      0.0000    178.1000    838.1259      1.0000      0.4134      0.9500      0.5000      0.9500      0.9000      0.0100           0
172136          A                  2030.0000      0.0000    135.2000    857.0502      1.0000      0.2231      0.9500      0.5000      0.9500      0.9000      0.0100           0
172157          B                  2030.0000      0.0000    280.6000    682.7958      1.0000      0.0953      0.9500      0.5000      0.9500      0.9000      0.0100           0
172113          A                  2030.0000      0.0000    248.8000    708.9323      1.0000      0.1452      0.9500      0.5000      0.9500      0.9000      0.0100           0
172149          B                  2030.0000      0.0000    216.4000    759.3737      1.0000      0.1368      0.9500      0.5000      0.9500      0.9000      0.0100           0
172176          C                  2030.0000      0.0000    241.2000    401.3232      1.0000      0.3371      0.9500      0.5000      0.9500      0.5000      0.0100           0
172177          C                  2030.0000      0.0000    235.9000    354.4667      1.0000      0.6211      0.9500      0.5000      0.9500      0.5000      0.0100           0
172170          A                  2030.0000      0.0000    178.1000    838.1259      1.0000      0.6016      0.9500      0.5000      0.9500      0.9000      0.0100           0
172183          C                  2030.0000      0.0000    353.1000    427.3890      1.0000      1.5487      0.9500      0.5000      0.9500      0.5000      0.0100           0
172165          B                  2030.0000      0.0000    392.7000    712.8241      1.0000      0.9212      0.9500      0.5000      0.9500      0.9000      0.0100           0
172176          C                  2030.0000      0.0000    241.2000    401.3232      1.0000      0.6951      0.9500      0.5000      0.9500      0.5000      0.0100           0
172177          C                  2030.0000      0.0000    235.9000    354.4667      1.0000      1.5451      0.9500      0.5000      0.9500      0.5000      0.0100           0
172189          A                  2030.0000      0.0000    248.3000    875.0377      1.0000      0.9732      0.9500      0.5000      0.9500      0.9000      0.0100           0
172196          A                    20.0000      0.0000      0.1000     18.3906      1.0000      0.4705      0.9500      0.5000      0.9500      0.9000      0.0100           0
172136          A                  2030.0000      0.0000    135.2000    857.0502      1.0000      0.4388      0.9500      0.5000      0.9500      0.9000      0.0100           0
172157          B                  2030.0000      0.0000    280.6000    682.7958      1.0000      0.0936      0.9500      0.5000      0.9500      0.9000      0.0100           0
172113          A                  2030.0000      0.0000    248.8000    708.9323      1.0000      0.2886      0.9500      0.5000      0.9500      0.9000      0.0100           0
172165          B                  2030.0000      0.0000    392.7000    712.8241      1.0000      0.6751      0.9500      0.5000      0.9500      0.9000      0.0100           0
172170          A                  2030.0000      0.0000    178.1000    838.1259      1.0000      0.3562      0.9500      0.5000      0.9500      0.9000      0.0100           0
172196          A                    20.0000      0.0000      0.1000     18.3906      1.0000      1.4034      0.9500      0.5000      0.9500      0.9000      0.0100           0
172176          C                  2030.0000      0.0000    241.2000    401.3232      1.0000      0.8556      0.9500      0.5000      0.9500      0.5000      0.0100           0
172114          A                  2030.0000      0.0000    245.0000    674.2649      1.0000      0.3920      0.9500      0.5000      0.9500      0.9000      0.0100           0
172184          C                  2030.0000      0.0000    282.3000    559.5900      1.0000      0.4766      0.9500      0.5000      0.9500      0.5000      0.0100           0
172197          C                  1520.0000      0.0000     47.1000    655.0627      1.0000      0.4749      0.9500      0.5000      0.9500      0.5000      0.0100           0
172157          B                  2030.0000      0.0000    280.6000    682.7958      1.0000      0.1060      0.9500      0.5000      0.9500      0.9000      0.0100           0
172149          B                  2030.0000      0.0000    216.4000    759.3737      1.0000      0.1492      0.9500      0.5000      0.9500      0.9000      0.0100           0
172136          A                  2030.0000      0.0000    135.2000    857.0502      1.0000      0.5337      0.9500      0.5000      0.9500      0.9000      0.0100           0
172176          C                  2030.0000      0.0000    241.2000    401.3232      1.0000      0.8640      0.9500      0.5000      0.9500      0.5000      0.0100           0
172183          C                  2030.0000      0.0000    353.1000    427.3890      1.0000      0.9412      0.9500      0.5000      0.9500      0.5000      0.0100           0
172196          A                    20.0000      0.0000      0.1000     18.3906      1.0000      1.2428      0.9500      0.5000      0.9500      0.9000      0.0100           0
172197          C                  1520.0000      0.0000     47.1000    655.0627      1.0000      1.2689      0.9500      0.5000      0.9500      0.5000      0.0100           0
172113          A                  2030.0000      0.0000    248.8000    708.9323      1.0000      0.2024      0.9500      0.5000      0.9500      0.9000      0.0100           0
172136          A                  2030.0000      0.0000    135.2000    857.0502      1.0000      0.4377      0.9500      0.5000      0.9500      0.9000      0.0100           0
172176          C                  2030.0000      0.0000    241.2000    401.3232      1.0000      0.2451      0.9500      0.5000      0.9500      0.5000      0.0100           0
172183          C                  2030.0000      0.0000    353.1000    427.3890      1.0000      0.7747      0.9500      0.5000      0.9500      0.5000      0.0100           0
172171          C                  2030.0000      0.0000    342.8000    414.9485      1.0000      0.1285      0.9500      0.5000      0.9500      0.5000      0.0100           0
172133          C                  1650.0000      0.0000    261.9000    398.7293      1.0000      0.1545      0.9500      0.5000      0.9500      0.5000      0.0100           0
1605972         D                   710.0000      0.0000    105.6000    147.7044      1.0000      0.1037      0.9500      0.5000      0.9500      0.0500      0.0100           0
1605984         C                  2000.0000      0.0000    258.6000    327.3470      1.0000      0.1278      0.9500      0.5000      0.9500      0.5000      0.0100           0
167956          C                  2000.0000      0.0000    249.3000    399.5722      1.0000      0.1029      0.9500      0.5000      0.9500      0.5000      0.0100           0
167991          A                  1520.0000      0.0000     64.7000    666.3768      1.0000      0.3862      0.9500      0.5000      0.9500      0.9000      0.0100           0
167993          C                  1520.0000      0.0000    261.2000    288.9568      1.0000      0.1152      0.9500      0.5000      0.9500      0.5000      0.0100           0
167973          D                   760.0000      0.0000    123.2000    188.7462      1.0000      0.1097      0.9500      0.5000      0.9500      0.0500      0.0100           0
168000          A                  1520.0000      0.0000    193.7000    657.1953      1.0000      0.9009      0.9500      0.5000      0.9500      0.9000      0.0100           0
167989          B                  1520.0000      0.0000    232.3000    577.2755      1.0000      1.4162      0.9500      0.5000      0.9500      0.9000      0.0100           0
167997          C                  1520.0000      0.0000    257.7000    327.6769      1.0000      1.1262      0.9500      0.5000      0.9500      0.5000      0.0100           0
168003          C                  1520.0000      0.0000    264.0000    502.4294      1.0000      0.7222      0.9500      0.5000      0.9500      0.5000      0.0100           0
167978          B                  1520.0000      0.0000    292.0000    449.1420      1.0000      0.1160      0.9500      0.5000      0.9500      0.9000      0.0100           0
168004          C                  1520.0000      0.0000    264.0000    502.4294      1.0000      0.5516      0.9500      0.5000      0.9500      0.5000      0.0100           0
168003          C                  1520.0000      0.0000    264.0000    502.4294      1.0000      0.5592      0.9500      0.5000      0.9500      0.5000      0.0100           0
167978          B                  1520.0000      0.0000    292.0000    449.1420      1.0000      0.1097      0.9500      0.5000      0.9500      0.9000      0.0100           0
168004          C                  1520.0000      0.0000    264.0000    502.4294      1.0000      0.5481      0.9500      0.5000      0.9500      0.5000      0.0100           0
167979          C                  1520.0000      0.0000    280.0000    311.6165      1.0000      0.0960      0.9500      0.5000      0.9500      0.5000      0.0100           0
172169          B                  1750.0000      0.0000    250.5000    690.7018      1.0000      0.0936      0.9500      0.5000      0.9500      0.9000      0.0100           0
1605982         B                  1750.0000      0.0000    250.5000    690.7018      1.0000      0.9618      0.9500      0.5000      0.9500      0.9000      0.0100           0
168000          A                  1520.0000      0.0000    193.7000    657.1953      1.0000      0.4384      0.9500      0.5000      0.9500      0.9000      0.0100           0
168006          C                  1520.0000      0.0000     47.1000    655.0627      1.0000      0.4052      0.9500      0.5000      0.9500      0.5000      0.0100           0
167961          D                   740.0000      0.0000    110.6000    202.1052      1.0000      2.2054      0.9500      0.5000      0.9500      0.0500      0.0100           0
1605984         C                  2000.0000      0.0000    258.6000    327.3470      1.0000      0.1063      0.9500      0.5000      0.9500      0.5000      0.0100           0
167982          C                  1520.0000      0.0000    282.1000    520.8279      1.0000      0.5721      0.9500      0.5000      0.9500      0.5000      0.0100           0
167956          C                  2000.0000      0.0000    249.3000    399.5722      1.0000      0.1014      0.9500      0.5000      0.9500      0.5000      0.0100           0
167975          C                  2000.0000      0.0000    180.8000    323.4967      1.0000      1.4666      0.9500      0.5000      0.9500      0.5000      0.0100           0
172149          B                  2030.0000      0.0000    216.4000    759.3737      1.0000      0.8315      0.9500      0.5000      0.9500      0.9000      0.0100           0
167978          B                  1520.0000      0.0000    292.0000    449.1420      1.0000      0.1107      0.9500      0.5000      0.9500      0.9000      0.0100           0
168004          C                  1520.0000      0.0000    264.0000    502.4294      1.0000      0.4532      0.9500      0.5000      0.9500      0.5000      0.0100           0
172189          A                  2030.0000      0.0000    248.3000    875.0377      1.0000      0.6224      0.9500      0.5000      0.9500      0.9000      0.0100           0
172115          D                   610.0000      0.0000     94.5000    153.5224      1.0000      2.5561      0.9500      0.5000      0.9500      0.0500      0.0100           0
172146          D                   760.0000      0.0000    103.8000    210.6027      1.0000      0.5736      0.9500      0.5000      0.9500      0.0500      0.0100           0
172197          C                  1520.0000      0.0000     47.1000    655.0627      1.0000      0.4977      0.9500      0.5000      0.9500      0.5000      0.0100           0
172169          B                  1750.0000      0.0000    250.5000    690.7018      1.0000      0.4627      0.9500      0.5000      0.9500      0.9000      0.0100           0
172149          B                  2030.0000      0.0000    216.4000    759.3737      1.0000      0.6622      0.9500      0.5000      0.9500      0.9000      0.0100           0
167961          D                   740.0000      0.0000    110.6000    202.1052      1.0000      2.0084      0.9500      0.5000      0.9500      0.0500      0.0100           0
168004          C                  1520.0000      0.0000    264.0000    502.4294      1.0000      0.5933      0.9500      0.5000      0.9500      0.5000      0.0100           0
168000          A                  1520.0000      0.0000    193.7000    657.1953      1.0000      0.4941      0.9500      0.5000      0.9500      0.9000      0.0100           0
167997          C                  1520.0000      0.0000    257.7000    327.6769      1.0000      0.8463      0.9500      0.5000      0.9500      0.5000      0.0100           0
167978          B                  1520.0000      0.0000    292.0000    449.1420      1.0000      0.1014      0.9500      0.5000      0.9500      0.9000      0.0100           0
172149          B                  2030.0000      0.0000    216.4000    759.3737      1.0000      0.1740      0.9500      0.5000      0.9500      0.9000      0.0100           0
172170          A                  2030.0000      0.0000    178.1000    838.1259      1.0000      0.3306      0.9500      0.5000      0.9500      0.9000      0.0100           0
172144          C                  2030.0000      0.0000    226.0000    393.7770      1.0000      0.2235      0.9500      0.5000      0.9500      0.5000      0.0100           0
172133          C                  1650.0000      0.0000    261.9000    398.7293      1.0000      0.1113      0.9500      0.5000      0.9500      0.5000      0.0100           0
172155          C                  2030.0000      0.0000    216.5000    342.5789      1.0000      0.1094      0.9500      0.5000      0.9500      0.5000      0.0100           0
172176          C                  2030.0000      0.0000    241.2000    401.3232      1.0000      0.1111      0.9500      0.5000      0.9500      0.5000      0.0100           0
168003          C                  1520.0000      0.0000    264.0000    502.4294      1.0000      0.7685      0.9500      0.5000      0.9500      0.5000      0.0100           0
172115          D                   610.0000      0.0000     94.5000    153.5224      1.0000      1.4398      0.9500      0.5000      0.9500      0.0500      0.0100           0
172149          B                  2030.0000      0.0000    216.4000    759.3737      1.0000      1.5328      0.9500      0.5000      0.9500      0.9000      0.0100           0
172169          B                  1750.0000      0.0000    250.5000    690.7018      1.0000      0.8327      0.9500      0.5000      0.9500      0.9000      0.0100           0
172170          A                  2030.0000      0.0000    178.1000    838.1259      1.0000      0.6482      0.9500      0.5000      0.9500      0.9000      0.0100           0
172189          A                  2030.0000      0.0000    248.3000    875.0377      1.0000      0.8802      0.9500      0.5000      0.9500      0.9000      0.0100           0
168000          A                  1520.0000      0.0000    193.7000    657.1953      1.0000      0.5367      0.9500      0.5000      0.9500      0.9000      0.0100           0
168003          C                  1520.0000      0.0000    264.0000    502.4294      1.0000      1.9187      0.9500      0.5000      0.9500      0.5000      0.0100           0
172169          B                  1750.0000      0.0000    250.5000    690.7018      1.0000      0.9831      0.9500      0.5000      0.9500      0.9000      0.0100           0
172183          C                  2030.0000      0.0000    353.1000    427.3890      1.0000      1.8654      0.9500      0.5000      0.9500      0.5000      0.0100           0
172170          A                  2030.0000      0.0000    178.1000    838.1259      1.0000      1.9649      0.9500      0.5000      0.9500      0.9000      0.0100           0
167997          C                  1520.0000      0.0000    257.7000    327.6769      1.0000      1.6060      0.9500      0.5000      0.9500      0.5000      0.0100           0
167983          C                  1520.0000      0.0000    282.1000    520.8279      1.0000      1.3299      0.9500      0.5000      0.9500      0.5000      0.0100           0
168003          C                  1520.0000      0.0000    264.0000    502.4294      1.0000      0.8783      0.9500      0.5000      0.9500      0.5000      0.0100           0
167978          B                  1520.0000      0.0000    292.0000    449.1420      1.0000      0.3387      0.9500      0.5000      0.9500      0.9000      0.0100           0
168004          C                  1520.0000      0.0000    264.0000    502.4294      1.0000      0.6850      0.9500      0.5000      0.9500      0.5000      0.0100           0
167970          B                  1520.0000      0.0000    273.1000    530.0397      1.0000      0.3042      0.9500      0.5000      0.9500      0.9000      0.0100           0
168003          C                  1520.0000      0.0000    264.0000    502.4294      1.0000      0.6441      0.9500      0.5000      0.9500      0.5000      0.0100           0
167978          B                  1520.0000      0.0000    292.0000    449.1420      1.0000      0.2388      0.9500      0.5000      0.9500      0.9000      0.0100           0
167997          C                  1520.0000      0.0000    257.7000    327.6769      1.0000      1.5406      0.9500      0.5000      0.9500      0.5000      0.0100           0
167990          A                  1520.0000      0.0000    173.3000    636.2618      1.0000      0.3617      0.9500      0.5000      0.9500      0.9000      0.0100           0
167970          B                  1520.0000      0.0000    273.1000    530.0397      1.0000      0.1930      0.9500      0.5000      0.9500      0.9000      0.0100           0
167999          A                  1520.0000      0.0000    100.2000    547.0575      1.0000      0.3872      0.9500      0.5000      0.9500      0.9000      0.0100           0
168003          C                  1520.0000      0.0000    264.0000    502.4294      1.0000      0.4624      0.9500      0.5000      0.9500      0.5000      0.0100           0
167978          B                  1520.0000      0.0000    292.0000    449.1420      1.0000      0.2449      0.9500      0.5000      0.9500      0.9000      0.0100           0
168004          C                  1520.0000      0.0000    264.0000    502.4294      1.0000      0.7220      0.9500      0.5000      0.9500      0.5000      0.0100           0
167970          B                  1520.0000      0.0000    273.1000    530.0397      1.0000      0.2407      0.9500      0.5000      0.9500      0.9000      0.0100           0
167999          A                  1520.0000      0.0000    100.2000    547.0575      1.0000      0.4679      0.9500      0.5000      0.9500      0.9000      0.0100           0
167990          A                  1520.0000      0.0000    173.3000    636.2618      1.0000      0.3933      0.9500      0.5000      0.9500      0.9000      0.0100           0
168003          C                  1520.0000      0.0000    264.0000    502.4294      1.0000      0.7063      0.9500      0.5000      0.9500      0.5000      0.0100           0
168004          C                  1520.0000      0.0000    264.0000    502.4294      1.0000      0.6385      0.9500      0.5000      0.9500      0.5000      0.0100           0
167978          B                  1520.0000      0.0000    292.0000    449.1420      1.0000      0.2133      0.9500      0.5000      0.9500      0.9000      0.0100           0
167997          C                  1520.0000      0.0000    257.7000    327.6769      1.0000      1.0727      0.9500      0.5000      0.9500      0.5000      0.0100           0
167990          A                  1520.0000      0.0000    173.3000    636.2618      1.0000      0.2620      0.9500      0.5000      0.9500      0.9000      0.0100           0
167978          B                  1520.0000      0.0000    292.0000    449.1420      1.0000      0.2355      0.9500      0.5000      0.9500      0.9000      0.0100           0
168005          A                    20.0000      0.0000      0.1000     18.3906      1.0000      0.6484      0.9500      0.5000      0.9500      0.9000      0.0100           0
167970          B                  1520.0000      0.0000    273.1000    530.0397      1.0000      0.2553      0.9500      0.5000      0.9500      0.9000      0.0100           0
167999          A                  1520.0000      0.0000    100.2000    547.0575      1.0000      0.4589      0.9500      0.5000      0.9500      0.9000      0.0100           0
167990          A                  1520.0000      0.0000    173.3000    636.2618      1.0000      0.4108      0.9500      0.5000      0.9500      0.9000      0.0100           0
167978          B                  1520.0000      0.0000    292.0000    449.1420      1.0000      0.2324      0.9500      0.5000      0.9500      0.9000      0.0100           0
168004          C                  1520.0000      0.0000    264.0000    502.4294      1.0000      0.5934      0.9500      0.5000      0.9500      0.5000      0.0100           0
167970          B                  1520.0000      0.0000    273.1000    530.0397      1.0000      0.2648      0.9500      0.5000      0.9500      0.9000      0.0100           0
168003          C                  1520.0000      0.0000    264.0000    502.4294      1.0000      0.2730      0.9500      0.5000      0.9500      0.5000      0.0100           0
167990          A                  1520.0000      0.0000    173.3000    636.2618      1.0000      0.3734      0.9500      0.5000      0.9500      0.9000      0.0100           0
167999          A                  1520.0000      0.0000    100.2000    547.0575      1.0000      0.4007      0.9500      0.5000      0.9500      0.9000      0.0100           0
167997          C                  1520.0000      0.0000    257.7000    327.6769      1.0000      1.7494      0.9500      0.5000      0.9500      0.5000      0.0100           0
168003          C                  1520.0000      0.0000    264.0000    502.4294      1.0000      0.7337      0.9500      0.5000      0.9500      0.5000      0.0100           0
167978          B                  1520.0000      0.0000    292.0000    449.1420      1.0000      0.4201      0.9500      0.5000      0.9500      0.9000      0.0100           0
168005          A                    20.0000      0.0000      0.1000     18.3906      1.0000      0.4358      0.9500      0.5000      0.9500      0.9000      0.0100           0
167967          B                  1520.0000      0.0000    181.0000    558.3986      1.0000      0.4301      0.9500      0.5000      0.9500      0.9000      0.0100           0
167975          C                  2000.0000      0.0000    180.8000    323.4967      1.0000      0.2194      0.9500      0.5000      0.9500      0.5000      0.0100           0
167989          B                  1520.0000      0.0000    232.3000    577.2755      1.0000      0.7257      0.9500      0.5000      0.9500      0.9000      0.0100           0
167956          C                  2000.0000      0.0000    249.3000    399.5722      1.0000      0.2785      0.9500      0.5000      0.9500      0.5000      0.0100           0
168003          C                  1520.0000      0.0000    264.0000    502.4294      1.0000      0.5552      0.9500      0.5000      0.9500      0.5000      0.0100           0
167999          A                  1520.0000      0.0000    100.2000    547.0575      1.0000      0.7381      0.9500      0.5000      0.9500      0.9000      0.0100           0
167978          B                  1520.0000      0.0000    292.0000    449.1420      1.0000      0.2945      0.9500      0.5000      0.9500      0.9000      0.0100           0
167977          B                  1520.0000      0.0000    194.7000    527.5425      1.0000      0.4246      0.9500      0.5000      0.9500      0.9000      0.0100           0
167975          C                  2000.0000      0.0000    180.8000    323.4967      1.0000      0.4137      0.9500      0.5000      0.9500      0.5000      0.0100           0
167989          B                  1520.0000      0.0000    232.3000    577.2755      1.0000      0.4459      0.9500      0.5000      0.9500      0.9000      0.0100           0
167990          A                  1520.0000      0.0000    173.3000    636.2618      1.0000      0.5166      0.9500      0.5000      0.9500      0.9000      0.0100           0
167970          B                  1520.0000      0.0000    273.1000    530.0397      1.0000      0.4191      0.9500      0.5000      0.9500      0.9000      0.0100           0
167967          B                  1520.0000      0.0000    181.0000    558.3986      1.0000      0.6395      0.9500      0.5000      0.9500      0.9000      0.0100           0
168003          C                  1520.0000      0.0000    264.0000    502.4294      1.0000      0.4129      0.9500      0.5000      0.9500      0.5000      0.0100           0
167978          B                  1520.0000      0.0000    292.0000    449.1420      1.0000      0.2575      0.9500      0.5000      0.9500      0.9000      0.0100           0
167975          C                  2000.0000      0.0000    180.8000    323.4967      1.0000      0.2194      0.9500      0.5000      0.9500      0.5000      0.0100           0
167990          A                  1520.0000      0.0000    173.3000    636.2618      1.0000      0.6083      0.9500      0.5000      0.9500      0.9000      0.0100           0
167977          B                  1520.0000      0.0000    194.7000    527.5425      1.0000      0.4167      0.9500      0.5000      0.9500      0.9000      0.0100           0
167967          B                  1520.0000      0.0000    181.0000    558.3986      1.0000      0.3167      0.9500      0.5000      0.9500      0.9000      0.0100           0
167971          C                  1520.0000      0.0000    181.9000    248.1566      1.0000      0.1759      0.9500      0.5000      0.9500      0.5000      0.0100           0
168003          C                  1520.0000      0.0000    264.0000    502.4294      1.0000      0.3980      0.9500      0.5000      0.9500      0.5000      0.0100           0
167978          B                  1520.0000      0.0000    292.0000    449.1420      1.0000      0.2545      0.9500      0.5000      0.9500      0.9000      0.0100           0
167999          A                  1520.0000      0.0000    100.2000    547.0575      1.0000      0.7968      0.9500      0.5000      0.9500      0.9000      0.0100           0
167972          A                  1520.0000      0.0000    114.4000    672.9366      1.0000      0.4040      0.9500      0.5000      0.9500      0.9000      0.0100           0
167990          A                  1520.0000      0.0000    173.3000    636.2618      1.0000      0.5587      0.9500      0.5000      0.9500      0.9000      0.0100           0
167977          B                  1520.0000      0.0000    194.7000    527.5425      1.0000      0.4423      0.9500      0.5000      0.9500      0.9000      0.0100           0
167975          C                  2000.0000      0.0000    180.8000    323.4967      1.0000      0.4390      0.9500      0.5000      0.9500      0.5000      0.0100           0
167967          B                  1520.0000      0.0000    181.0000    558.3986      1.0000      0.4863      0.9500      0.5000      0.9500      0.9000      0.0100           0
168005          A                    20.0000      0.0000      0.1000     18.3906      1.0000      0.4386      0.9500      0.5000      0.9500      0.9000      0.0100           0
167956          C                  2000.0000      0.0000    249.3000    399.5722      1.0000      0.2486      0.9500      0.5000      0.9500      0.5000      0.0100           0
167971          C                  1520.0000      0.0000    181.9000    248.1566      1.0000      0.1872      0.9500      0.5000      0.9500      0.5000      0.0100           0
168003          C                  1520.0000      0.0000    264.0000    502.4294      1.0000      0.4574      0.9500      0.5000      0.9500      0.5000      0.0100           0
167999          A                  1520.0000      0.0000    100.2000    547.0575      1.0000      0.5878      0.9500      0.5000      0.9500      0.9000      0.0100           0
167978          B                  1520.0000      0.0000    292.0000    449.1420      1.0000      0.3351      0.9500      0.5000      0.9500      0.9000      0.0100           0
167977          B                  1520.0000      0.0000    194.7000    527.5425      1.0000      0.3855      0.9500      0.5000      0.9500      0.9000      0.0100           0
167990          A                  1520.0000      0.0000    173.3000    636.2618      1.0000      0.5932      0.9500      0.5000      0.9500      0.9000      0.0100           0
167975          C                  2000.0000      0.0000    180.8000    323.4967      1.0000      0.3809      0.9500      0.5000      0.9500      0.5000      0.0100           0
167970          B                  1520.0000      0.0000    273.1000    530.0397      1.0000      0.4935      0.9500      0.5000      0.9500      0.9000      0.0100           0
167967          B                  1520.0000      0.0000    181.0000    558.3986      1.0000      0.5915      0.9500      0.5000      0.9500      0.9000      0.0100           0
167978          B                  1520.0000      0.0000    292.0000    449.1420      1.0000      0.3915      0.9500      0.5000      0.9500      0.9000      0.0100           0
168003          C                  1520.0000      0.0000    264.0000    502.4294      1.0000      0.4444      0.9500      0.5000      0.9500      0.5000      0.0100           0
167972          A                  1520.0000      0.0000    114.4000    672.9366      1.0000      0.2530      0.9500      0.5000      0.9500      0.9000      0.0100           0
167977          B                  1520.0000      0.0000    194.7000    527.5425      1.0000      0.4000      0.9500      0.5000      0.9500      0.9000      0.0100           0
167999          A                  1520.0000      0.0000    100.2000    547.0575      1.0000      0.5736      0.9500      0.5000      0.9500      0.9000      0.0100           0
167990          A                  1520.0000      0.0000    173.3000    636.2618      1.0000      0.3090      0.9500      0.5000      0.9500      0.9000      0.0100           0
167967          B                  1520.0000      0.0000    181.0000    558.3986      1.0000      0.4668      0.9500      0.5000      0.9500      0.9000      0.0100           0
167975          C                  2000.0000      0.0000    180.8000    323.4967      1.0000      0.2988      0.9500      0.5000      0.9500      0.5000      0.0100           0
1605983         A                  2030.0000      0.0000    178.1000    838.1259      1.0000      0.4497      0.9500      0.5000      0.9500      0.9000      0.0100           0
167978          B                  1520.0000      0.0000    292.0000    449.1420      1.0000      0.4784      0.9500      0.5000      0.9500      0.9000      0.0100           0
167983          C                  1520.0000      0.0000    282.1000    520.8279      1.0000      0.6430      0.9500      0.5000      0.9500      0.5000      0.0100           0
167999          A                  1520.0000      0.0000    100.2000    547.0575      1.0000      0.6445      0.9500      0.5000      0.9500      0.9000      0.0100           0
167967          B                  1520.0000      0.0000    181.0000    558.3986      1.0000      0.5988      0.9500      0.5000      0.9500      0.9000      0.0100           0
167975          C                  2000.0000      0.0000    180.8000    323.4967      1.0000      0.3061      0.9500      0.5000      0.9500      0.5000      0.0100           0
2996484         C                  2000.0000      0.0000    247.1000    362.2018      1.0000      0.4009      0.9500      0.5000      0.9500      0.5000      0.0100           0
167971          C                  1520.0000      0.0000    181.9000    248.1566      1.0000      0.1687      0.9500      0.5000      0.9500      0.5000      0.0100           0
168004          C                  1520.0000      0.0000    264.0000    502.4294      1.0000      0.1690      0.9500      0.5000      0.9500      0.5000      0.0100           0
167956          C                  2000.0000      0.0000    249.3000    399.5722      1.0000      0.2667      0.9500      0.5000      0.9500      0.5000      0.0100           0
167958          A                  1520.0000      0.0000    174.9000    566.1566      1.0000      0.7291      0.9500      0.5000      0.9500      0.9000      0.0100           0
167983          C                  1520.0000      0.0000    282.1000    520.8279      1.0000      0.8055      0.9500      0.5000      0.9500      0.5000      0.0100           0
167997          C                  1520.0000      0.0000    257.7000    327.6769      1.0000      1.7791      0.9500      0.5000      0.9500      0.5000      0.0100           0
167978          B                  1520.0000      0.0000    292.0000    449.1420      1.0000      0.9397      0.9500      0.5000      0.9500      0.9000      0.0100           0
168003          C                  1520.0000      0.0000    264.0000    502.4294      1.0000      1.3026      0.9500      0.5000      0.9500      0.5000      0.0100           0
167989          B                  1520.0000      0.0000    232.3000    577.2755      1.0000      0.5720      0.9500      0.5000      0.9500      0.9000      0.0100           0
167967          B                  1520.0000      0.0000    181.0000    558.3986      1.0000      0.9804      0.9500      0.5000      0.9500      0.9000      0.0100           0
167975          C                  2000.0000      0.0000    180.8000    323.4967      1.0000      0.3526      0.9500      0.5000      0.9500      0.5000      0.0100           0
167956          C                  2000.0000      0.0000    249.3000    399.5722      1.0000      0.2312      0.9500      0.5000      0.9500      0.5000      0.0100           0
2996484         C                  2000.0000      0.0000    247.1000    362.2018      1.0000      0.4241      0.9500      0.5000      0.9500      0.5000      0.0100           0
167971          C                  1520.0000      0.0000    181.9000    248.1566      1.0000      0.2059      0.9500      0.5000      0.9500      0.5000      0.0100           0
167978          B                  1520.0000      0.0000    292.0000    449.1420      1.0000      0.3531      0.9500      0.5000      0.9500      0.9000      0.0100           0
168003          C                  1520.0000      0.0000    264.0000    502.4294      1.0000      0.6350      0.9500      0.5000      0.9500      0.5000      0.0100           0
167975          C                  2000.0000      0.0000    180.8000    323.4967      1.0000      0.2588      0.9500      0.5000      0.9500      0.5000      0.0100           0
167967          B                  1520.0000      0.0000    181.0000    558.3986      1.0000      0.4335      0.9500      0.5000      0.9500      0.9000      0.0100           0
167957          C                  2000.0000      0.0000    246.6000    391.8919      1.0000      0.2104      0.9500      0.5000      0.9500      0.5000      0.0100           0
167971          C                  1520.0000      0.0000    181.9000    248.1566      1.0000      0.1660      0.9500      0.5000      0.9500      0.5000      0.0100           0
2996484         C                  2000.0000      0.0000    247.1000    362.2018      1.0000      0.3229      0.9500      0.5000      0.9500      0.5000      0.0100           0
167956          C                  2000.0000      0.0000    249.3000    399.5722      1.0000      0.2161      0.9500      0.5000      0.9500      0.5000      0.0100           0
172113          A                  2030.0000      0.0000    248.8000    708.9323      1.0000      0.4022      0.9500      0.5000      0.9500      0.9000      0.0100           0
168003          C                  1520.0000      0.0000    264.0000    502.4294      1.0000      0.6200      0.9500      0.5000      0.9500      0.5000      0.0100           0
167997          C                  1520.0000      0.0000    257.7000    327.6769      1.0000      2.3266      0.9500      0.5000      0.9500      0.5000      0.0100           0
167958          A                  1520.0000      0.0000    174.9000    566.1566      1.0000      0.3003      0.9500      0.5000      0.9500      0.9000      0.0100           0
1605971         A                  2030.0000      0.0000    135.2000    857.0502      1.0000      0.3206      0.9500      0.5000      0.9500      0.9000      0.0100           0
167978          B                  1520.0000      0.0000    292.0000    449.1420      1.0000      0.3642      0.9500      0.5000      0.9500      0.9000      0.0100           0
172169          B                  1750.0000      0.0000    250.5000    690.7018      1.0000      0.9981      0.9500      0.5000      0.9500      0.9000      0.0100           0
172183          C                  2030.0000      0.0000    353.1000    427.3890      1.0000      2.1792      0.9500      0.5000      0.9500      0.5000      0.0100           0
172187          A                  2030.0000      0.0000    129.9000    736.3116      1.0000      1.7338      0.9500      0.5000      0.9500      0.9000      0.0100           0
168004          C                  1520.0000      0.0000    264.0000    502.4294      1.0000      2.7551      0.9500      0.5000      0.9500      0.5000      0.0100           0
167997          C                  1520.0000      0.0000    257.7000    327.6769      1.0000      1.7319      0.9500      0.5000      0.9500      0.5000      0.0100           0
168003          C                  1520.0000      0.0000    264.0000    502.4294      1.0000      0.8636      0.9500      0.5000      0.9500      0.5000      0.0100           0
167983          C                  1520.0000      0.0000    282.1000    520.8279      1.0000      1.0216      0.9500      0.5000      0.9500      0.5000      0.0100           0
167958          A                  1520.0000      0.0000    174.9000    566.1566      1.0000      0.9301      0.9500      0.5000      0.9500      0.9000      0.0100           0
167978          B                  1520.0000      0.0000    292.0000    449.1420      1.0000      0.5124      0.9500      0.5000      0.9500      0.9000      0.0100           0
168003          C                  1520.0000      0.0000    264.0000    502.4294      1.0000      0.6603      0.9500      0.5000      0.9500      0.5000      0.0100           0
167958          A                  1520.0000      0.0000    174.9000    566.1566      1.0000      0.2496      0.9500      0.5000      0.9500      0.9000      0.0100           0
167997          C                  1520.0000      0.0000    257.7000    327.6769      1.0000      0.5920      0.9500      0.5000      0.9500      0.5000      0.0100           0
167978          B                  1520.0000      0.0000    292.0000    449.1420      1.0000      0.4923      0.9500      0.5000      0.9500      0.9000      0.0100           0
168004          C                  1520.0000      0.0000    264.0000    502.4294      1.0000      0.1532      0.9500      0.5000      0.9500      0.5000      0.0100           0
167990          A                  1520.0000      0.0000    173.3000    636.2618      1.0000      0.5501      0.9500      0.5000      0.9500      0.9000      0.0100           0
172136          A                  2030.0000      0.0000    135.2000    857.0502      1.0000      0.1593      0.9500      0.5000      0.9500      0.9000      0.0100           0
168003          C                  1520.0000      0.0000    264.0000    502.4294      1.0000      0.4256      0.9500      0.5000      0.9500      0.5000      0.0100           0
167958          A                  1520.0000      0.0000    174.9000    566.1566      1.0000      0.2206      0.9500      0.5000      0.9500      0.9000      0.0100           0
167978          B                  1520.0000      0.0000    292.0000    449.1420      1.0000      0.1559      0.9500      0.5000      0.9500      0.9000      0.0100           0
172113          A                  2030.0000      0.0000    248.8000    708.9323      1.0000      0.6717      0.9500      0.5000      0.9500      0.9000      0.0100           0
172196          A                    20.0000      0.0000      0.1000     18.3906      1.0000      0.9038      0.9500      0.5000      0.9500      0.9000      0.0100           0
172183          C                  2030.0000      0.0000    353.1000    427.3890      1.0000      1.6285      0.9500      0.5000      0.9500      0.5000      0.0100           0
168003          C                  1520.0000      0.0000    264.0000    502.4294      1.0000      0.5835      0.9500      0.5000      0.9500      0.5000      0.0100           0
167958          A                  1520.0000      0.0000    174.9000    566.1566      1.0000      0.6537      0.9500      0.5000      0.9500      0.9000      0.0100           0
167997          C                  1520.0000      0.0000    257.7000    327.6769      1.0000      0.8661      0.9500      0.5000      0.9500      0.5000      0.0100           0
167983          C                  1520.0000      0.0000    282.1000    520.8279      1.0000      0.6428      0.9500      0.5000      0.9500      0.5000      0.0100           0
1605971         A                  2030.0000      0.0000    135.2000    857.0502      1.0000      0.2872      0.9500      0.5000      0.9500      0.9000      0.0100           0
167978          B                  1520.0000      0.0000    292.0000    449.1420      1.0000      0.2316      0.9500      0.5000      0.9500      0.9000      0.0100           0
168003          C                  1520.0000      0.0000    264.0000    502.4294      1.0000      0.5424      0.9500      0.5000      0.9500      0.5000      0.0100           0
167978          B                  1520.0000      0.0000    292.0000    449.1420      1.0000      0.2486      0.9500      0.5000      0.9500      0.9000      0.0100           0
167958          A                  1520.0000      0.0000    174.9000    566.1566      1.0000      0.2250      0.9500      0.5000      0.9500      0.9000      0.0100           0
167990          A                  1520.0000      0.0000    173.3000    636.2618      1.0000      0.2901      0.9500      0.5000      0.9500      0.9000      0.0100           0
167978          B                  1520.0000      0.0000    292.0000    449.1420      1.0000      0.1947      0.9500      0.5000      0.9500      0.9000      0.0100           0
167990          A                  1520.0000      0.0000    173.3000    636.2618      1.0000      0.3009      0.9500      0.5000      0.9500      0.9000      0.0100           0
172169          B                  1750.0000      0.0000    250.5000    690.7018      1.0000      0.8224      0.9500      0.5000      0.9500      0.9000      0.0100           0
172189          A                  2030.0000      0.0000    248.3000    875.0377      1.0000      0.7070      0.9500      0.5000      0.9500      0.9000      0.0100           0
172170          A                  2030.0000      0.0000    178.1000    838.1259      1.0000      0.1378      0.9500      0.5000      0.9500      0.9000      0.0100           0
172186          C                  2030.0000      0.0000    270.7000    525.4525      1.0000      3.5925      0.9500      0.5000      0.9500      0.5000      0.0100           0
172183          C                  2030.0000      0.0000    353.1000    427.3890      1.0000      1.9248      0.9500      0.5000      0.9500      0.5000      0.0100           0
172187          A                  2030.0000      0.0000    129.9000    736.3116      1.0000      1.0750      0.9500      0.5000      0.9500      0.9000      0.0100           0
172136          A                  2030.0000      0.0000    135.2000    857.0502      1.0000      0.3862      0.9500      0.5000      0.9500      0.9000      0.0100           0
172189          A                  2030.0000      0.0000    248.3000    875.0377      1.0000      1.0199      0.9500      0.5000      0.9500      0.9000      0.0100           0
172170          A                  2030.0000      0.0000    178.1000    838.1259      1.0000      0.1806      0.9500      0.5000      0.9500      0.9000      0.0100           0
172183          C                  2030.0000      0.0000    353.1000    427.3890      1.0000      1.4331      0.9500      0.5000      0.9500      0.5000      0.0100           0
172186          C                  2030.0000      0.0000    270.7000    525.4525      1.0000      4.1382      0.9500      0.5000      0.9500      0.5000      0.0100           0
172187          A                  2030.0000      0.0000    129.9000    736.3116      1.0000      0.5636      0.9500      0.5000      0.9500      0.9000      0.0100           0
172170          A                  2030.0000      0.0000    178.1000    838.1259      1.0000      0.5339      0.9500      0.5000      0.9500      0.9000      0.0100           0
172170          A                  2030.0000      0.0000    178.1000    838.1259      1.0000      0.3853      0.9500      0.5000      0.9500      0.9000      0.0100           0
172136          A                  2030.0000      0.0000    135.2000    857.0502      1.0000      0.2208      0.9500      0.5000      0.9500      0.9000      0.0100           0
172183          C                  2030.0000      0.0000    353.1000    427.3890      1.0000      0.9860      0.9500      0.5000      0.9500      0.5000      0.0100           0
172189          A                  2030.0000      0.0000    248.3000    875.0377      1.0000      0.4365      0.9500      0.5000      0.9500      0.9000      0.0100           0
168000          A                  1520.0000      0.0000    193.7000    657.1953      1.0000      0.5770      0.9500      0.5000      0.9500      0.9000      0.0100           0
167961          D                   740.0000      0.0000    110.6000    202.1052      1.0000      2.5696      0.9500      0.5000      0.9500      0.0500      0.0100           0
168003          C                  1520.0000      0.0000    264.0000    502.4294      1.0000      0.8411      0.9500      0.5000      0.9500      0.5000      0.0100           0
168004          C                  1520.0000      0.0000    264.0000    502.4294      1.0000      0.9315      0.9500      0.5000      0.9500      0.5000      0.0100           0
167983          C                  1520.0000      0.0000    282.1000    520.8279      1.0000      0.7180      0.9500      0.5000      0.9500      0.5000      0.0100           0
167997          C                  1520.0000      0.0000    257.7000    327.6769      1.0000      1.5851      0.9500      0.5000      0.9500      0.5000      0.0100           0
167978          B                  1520.0000      0.0000    292.0000    449.1420      1.0000      0.1558      0.9500      0.5000      0.9500      0.9000      0.0100           0
167982          C                  1520.0000      0.0000    282.1000    520.8279      1.0000      0.9055      0.9500      0.5000      0.9500      0.5000      0.0100           0
167967          B                  1520.0000      0.0000    181.0000    558.3986      1.0000      0.5337      0.9500      0.5000      0.9500      0.9000      0.0100           0
168003          C                  1520.0000      0.0000    264.0000    502.4294      1.0000      0.6261      0.9500      0.5000      0.9500      0.5000      0.0100           0
168000          A                  1520.0000      0.0000    193.7000    657.1953      1.0000      0.4287      0.9500      0.5000      0.9500      0.9000      0.0100           0
167978          B                  1520.0000      0.0000    292.0000    449.1420      1.0000      0.1404      0.9500      0.5000      0.9500      0.9000      0.0100           0
167997          C                  1520.0000      0.0000    257.7000    327.6769      1.0000      0.7688      0.9500      0.5000      0.9500      0.5000      0.0100           0
168004          C                  1520.0000      0.0000    264.0000    502.4294      1.0000      0.4243      0.9500      0.5000      0.9500      0.5000      0.0100           0
167982          C                  1520.0000      0.0000    282.1000    520.8279      1.0000      0.4397      0.9500      0.5000      0.9500      0.5000      0.0100           0
167990          A                  1520.0000      0.0000    173.3000    636.2618      1.0000      0.3091      0.9500      0.5000      0.9500      0.9000      0.0100           0
167978          B                  1520.0000      0.0000    292.0000    449.1420      1.0000      0.1630      0.9500      0.5000      0.9500      0.9000      0.0100           0
168003          C                  1520.0000      0.0000    264.0000    502.4294      1.0000      0.9182      0.9500      0.5000      0.9500      0.5000      0.0100           0
168000          A                  1520.0000      0.0000    193.7000    657.1953      1.0000      0.5851      0.9500      0.5000      0.9500      0.9000      0.0100           0
167997          C                  1520.0000      0.0000    257.7000    327.6769      1.0000      1.3033      0.9500      0.5000      0.9500      0.5000      0.0100           0
167967          B                  1520.0000      0.0000    181.0000    558.3986      1.0000      0.6867      0.9500      0.5000      0.9500      0.9000      0.0100           0
167982          C                  1520.0000      0.0000    282.1000    520.8279      1.0000      0.5414      0.9500      0.5000      0.9500      0.5000      0.0100           0
168004          C                  1520.0000      0.0000    264.0000    502.4294      1.0000      0.5701      0.9500      0.5000      0.9500      0.5000      0.0100           0
167970          B                  1520.0000      0.0000    273.1000    530.0397      1.0000      0.1818      0.9500      0.5000      0.9500      0.9000      0.0100           0
167990          A                  1520.0000      0.0000    173.3000    636.2618      1.0000      0.8741      0.9500      0.5000      0.9500      0.9000      0.0100           0
168003          C                  1520.0000      0.0000    264.0000    502.4294      1.0000      0.6876      0.9500      0.5000      0.9500      0.5000      0.0100           0
167978          B                  1520.0000      0.0000    292.0000    449.1420      1.0000      0.3023      0.9500      0.5000      0.9500      0.9000      0.0100           0
167983          C                  1520.0000      0.0000    282.1000    520.8279      1.0000      0.8983      0.9500      0.5000      0.9500      0.5000      0.0100           0
168004          C                  1520.0000      0.0000    264.0000    502.4294      1.0000      0.4644      0.9500      0.5000      0.9500      0.5000      0.0100           0
167970          B                  1520.0000      0.0000    273.1000    530.0397      1.0000      0.2348      0.9500      0.5000      0.9500      0.9000      0.0100           0
167999          A                  1520.0000      0.0000    100.2000    547.0575      1.0000      0.5045      0.9500      0.5000      0.9500      0.9000      0.0100           0
167967          B                  1520.0000      0.0000    181.0000    558.3986      1.0000      0.4188      0.9500      0.5000      0.9500      0.9000      0.0100           0
167982          C                  1520.0000      0.0000    282.1000    520.8279      1.0000      0.6116      0.9500      0.5000      0.9500      0.5000      0.0100           0
168003          C                  1520.0000      0.0000    264.0000    502.4294      1.0000      0.6781      0.9500      0.5000      0.9500      0.5000      0.0100           0
167978          B                  1520.0000      0.0000    292.0000    449.1420      1.0000      0.2227      0.9500      0.5000      0.9500      0.9000      0.0100           0
167982          C                  1520.0000      0.0000    282.1000    520.8279      1.0000      0.5985      0.9500      0.5000      0.9500      0.5000      0.0100           0
168004          C                  1520.0000      0.0000    264.0000    502.4294      1.0000      0.2585      0.9500      0.5000      0.9500      0.5000      0.0100           0
167970          B                  1520.0000      0.0000    273.1000    530.0397      1.0000      0.2059      0.9500      0.5000      0.9500      0.9000      0.0100           0
167999          A                  1520.0000      0.0000    100.2000    547.0575      1.0000      0.5567      0.9500      0.5000      0.9500      0.9000      0.0100           0
167967          B                  1520.0000      0.0000    181.0000    558.3986      1.0000      0.4244      0.9500      0.5000      0.9500      0.9000      0.0100           0
167958          A                  1520.0000      0.0000    174.9000    566.1566      1.0000      0.5902      0.9500      0.5000      0.9500      0.9000      0.0100           0
167993          C                  1520.0000      0.0000    261.2000    288.9568      1.0000      0.1285      0.9500      0.5000      0.9500      0.5000      0.0100           0
167975          C                  2000.0000      0.0000    180.8000    323.4967      1.0000      0.1611      0.9500      0.5000      0.9500      0.5000      0.0100           0
167977          B                  1520.0000      0.0000    194.7000    527.5425      1.0000      0.2021      0.9500      0.5000      0.9500      0.9000      0.0100           0
167999          A                  1520.0000      0.0000    100.2000    547.0575      1.0000      0.4343      0.9500      0.5000      0.9500      0.9000      0.0100           0
167956          C                  2000.0000      0.0000    249.3000    399.5722      1.0000      0.1518      0.9500      0.5000      0.9500      0.5000      0.0100           0
167993          C                  1520.0000      0.0000    261.2000    288.9568      1.0000      0.1352      0.9500      0.5000      0.9500      0.5000      0.0100           0
167956          C                  2000.0000      0.0000    249.3000    399.5722      1.0000      0.1515      0.9500      0.5000      0.9500      0.5000      0.0100           0
167975          C                  2000.0000      0.0000    180.8000    323.4967      1.0000      0.1730      0.9500      0.5000      0.9500      0.5000      0.0100           0
167959          D                  2000.0000      0.0000    189.0000    230.7713      1.0000      0.1556      0.9500      0.5000      0.9500      0.0500      0.0100           0
2676647         D                  2000.0000      0.0000    189.0000    230.7713      1.0000      0.1435      0.9500      0.5000      0.9500      0.0500      0.0100           0
169968          C                  1520.0000      0.0000    192.2000    321.1348      1.0000      0.1356      0.9500      0.5000      0.9500      0.5000      0.0100           0
2903471         C                  2000.0000      0.0000    258.6000    327.3470      1.0000      0.1514      0.9500      0.5000      0.9500      0.5000      0.0100           0
167992          C                  1520.0000      0.0000    194.8000    281.7692      1.0000      0.1564      0.9500      0.5000      0.9500      0.5000      0.0100           0
168000          A                  1520.0000      0.0000    193.7000    657.1953      1.0000      0.6469      0.9500      0.5000      0.9500      0.9000      0.0100           0
167956          C                  2000.0000      0.0000    249.3000    399.5722      1.0000      0.7192      0.9500      0.5000      0.9500      0.5000      0.0100           0
167961          D                   740.0000      0.0000    110.6000    202.1052      1.0000      2.3399      0.9500      0.5000      0.9500      0.0500      0.0100           0
1605972         D                   710.0000      0.0000    105.6000    147.7044      1.0000      0.1813      0.9500      0.5000      0.9500      0.0500      0.0100           0
167973          D                   760.0000      0.0000    123.2000    188.7462      1.0000      0.1786      0.9500      0.5000      0.9500      0.0500      0.0100           0
167993          C                  1520.0000      0.0000    261.2000    288.9568      1.0000      0.2366      0.9500      0.5000      0.9500      0.5000      0.0100           0
1605984         C                  2000.0000      0.0000    258.6000    327.3470      1.0000      0.1228      0.9500      0.5000      0.9500      0.5000      0.0100           0
167956          C                  2000.0000      0.0000    249.3000    399.5722      1.0000      0.2216      0.9500      0.5000      0.9500      0.5000      0.0100           0
1605972         D                   710.0000      0.0000    105.6000    147.7044      1.0000      0.1190      0.9500      0.5000      0.9500      0.0500      0.0100           0
167973          D                   760.0000      0.0000    123.2000    188.7462      1.0000      0.1212      0.9500      0.5000      0.9500      0.0500      0.0100           0
167975          C                  2000.0000      0.0000    180.8000    323.4967      1.0000      0.2323      0.9500      0.5000      0.9500      0.5000      0.0100           0
167993          C                  1520.0000      0.0000    261.2000    288.9568      1.0000      0.1472      0.9500      0.5000      0.9500      0.5000      0.0100           0
167996          C                   660.0000      0.0000    119.1000    193.3720      1.0000      0.1726      0.9500      0.5000      0.9500      0.5000      0.0100           0
167970          B                  1520.0000      0.0000    273.1000    530.0397      1.0000      0.1348      0.9500      0.5000      0.9500      0.9000      0.0100           0
167993          C                  1520.0000      0.0000    261.2000    288.9568      1.0000      0.1242      0.9500      0.5000      0.9500      0.5000      0.0100           0
167973          D                   760.0000      0.0000    123.2000    188.7462      1.0000      0.1275      0.9500      0.5000      0.9500      0.0500      0.0100           0
167990          A                  1520.0000      0.0000    173.3000    636.2618      1.0000      0.2959      0.9500      0.5000      0.9500      0.9000      0.0100           0
167996          C                   660.0000      0.0000    119.1000    193.3720      1.0000      0.1395      0.9500      0.5000      0.9500      0.5000      0.0100           0
167999          A                  1520.0000      0.0000    100.2000    547.0575      1.0000      0.5073      0.9500      0.5000      0.9500      0.9000      0.0100           0
167970          B                  1520.0000      0.0000    273.1000    530.0397      1.0000      0.1425      0.9500      0.5000      0.9500      0.9000      0.0100           0
167971          C                  1520.0000      0.0000    181.9000    248.1566      1.0000      0.1377      0.9500      0.5000      0.9500      0.5000      0.0100           0
168003          C                  1520.0000      0.0000    264.0000    502.4294      1.0000      0.2342      0.9500      0.5000      0.9500      0.5000      0.0100           0
167983          C                  1520.0000      0.0000    282.1000    520.8279      1.0000      0.3911      0.9500      0.5000      0.9500      0.5000      0.0100           0
167977          B                  1520.0000      0.0000    194.7000    527.5425      1.0000      0.2125      0.9500      0.5000      0.9500      0.9000      0.0100           0
167978          B                  1520.0000      0.0000    292.0000    449.1420      1.0000      0.1038      0.9500      0.5000      0.9500      0.9000      0.0100           0
168000          A                  1520.0000      0.0000    193.7000    657.1953      1.0000      0.4320      0.9500      0.5000      0.9500      0.9000      0.0100           0
167977          B                  1520.0000      0.0000    194.7000    527.5425      1.0000      0.5671      0.9500      0.5000      0.9500      0.9000      0.0100           0
167978          B                  1520.0000      0.0000    292.0000    449.1420      1.0000      0.1314      0.9500      0.5000      0.9500      0.9000      0.0100           0
167956          C                  2000.0000      0.0000    249.3000    399.5722      1.0000      0.2104      0.9500      0.5000      0.9500      0.5000      0.0100           0
167993          C                  1520.0000      0.0000    261.2000    288.9568      1.0000      0.1100      0.9500      0.5000      0.9500      0.5000      0.0100           0
167982          C                  1520.0000      0.0000    282.1000    520.8279      1.0000      0.2366      0.9500      0.5000      0.9500      0.5000      0.0100           0
168003          C                  1520.0000      0.0000    264.0000    502.4294      1.0000      0.7639      0.9500      0.5000      0.9500      0.5000      0.0100           0
168000          A                  1520.0000      0.0000    193.7000    657.1953      1.0000      0.6610      0.9500      0.5000      0.9500      0.9000      0.0100           0
168006          C                  1520.0000      0.0000     47.1000    655.0627      1.0000      0.8287      0.9500      0.5000      0.9500      0.5000      0.0100           0
167977          B                  1520.0000      0.0000    194.7000    527.5425      1.0000      0.6580      0.9500      0.5000      0.9500      0.9000      0.0100           0
167961          D                   740.0000      0.0000    110.6000    202.1052      1.0000      1.6893      0.9500      0.5000      0.9500      0.0500      0.0100           0
167956          C                  2000.0000      0.0000    249.3000    399.5722      1.0000      0.7444      0.9500      0.5000      0.9500      0.5000      0.0100           0
167978          B                  1520.0000      0.0000    292.0000    449.1420      1.0000      1.0677      0.9500      0.5000      0.9500      0.9000      0.0100           0
167982          C                  1520.0000      0.0000    282.1000    520.8279      1.0000      0.5889      0.9500      0.5000      0.9500      0.5000      0.0100           0
167967          B                  1520.0000      0.0000    181.0000    558.3986      1.0000      0.6652      0.9500      0.5000      0.9500      0.9000      0.0100           0
168005          A                    20.0000      0.0000      0.1000     18.3906      1.0000      0.9292      0.9500      0.5000      0.9500      0.9000      0.0100           0
167977          B                  1520.0000      0.0000    194.7000    527.5425      1.0000      0.5946      0.9500      0.5000      0.9500      0.9000      0.0100           0
167956          C                  2000.0000      0.0000    249.3000    399.5722      1.0000      1.2994      0.9500      0.5000      0.9500      0.5000      0.0100           0
168000          A                  1520.0000      0.0000    193.7000    657.1953      1.0000      0.7473      0.9500      0.5000      0.9500      0.9000      0.0100           0
167993          C                  1520.0000      0.0000    261.2000    288.9568      1.0000      0.2132      0.9500      0.5000      0.9500      0.5000      0.0100           0
167991          A                  1520.0000      0.0000     64.7000    666.3768      1.0000      0.6711      0.9500      0.5000      0.9500      0.9000      0.0100           0
167982          C                  1520.0000      0.0000    282.1000    520.8279      1.0000      0.5644      0.9500      0.5000      0.9500      0.5000      0.0100           0
167978          B                  1520.0000      0.0000    292.0000    449.1420      1.0000      0.2254      0.9500      0.5000      0.9500      0.9000      0.0100           0
167967          B                  1520.0000      0.0000    181.0000    558.3986      1.0000      0.4641      0.9500      0.5000      0.9500      0.9000      0.0100           0
167957          C                  2000.0000      0.0000    246.6000    391.8919      1.0000      0.5349      0.9500      0.5000      0.9500      0.5000      0.0100           0
168003          C                  1520.0000      0.0000    264.0000    502.4294      1.0000      1.4325      0.9500      0.5000      0.9500      0.5000      0.0100           0
167961          D                   740.0000      0.0000    110.6000    202.1052      1.0000      1.5534      0.9500      0.5000      0.9500      0.0500      0.0100           0
167978          B                  1520.0000      0.0000    292.0000    449.1420      1.0000      0.4426      0.9500      0.5000      0.9500      0.9000      0.0100           0
167956          C                  2000.0000      0.0000    249.3000    399.5722      1.0000      0.7087      0.9500      0.5000      0.9500      0.5000      0.0100           0
167991          A                  1520.0000      0.0000     64.7000    666.3768      1.0000      0.6492      0.9500      0.5000      0.9500      0.9000      0.0100           0
167993          C                  1520.0000      0.0000    261.2000    288.9568      1.0000      0.2248      0.9500      0.5000      0.9500      0.5000      0.0100           0
167975          C                  2000.0000      0.0000    180.8000    323.4967      1.0000      0.6108      0.9500      0.5000      0.9500      0.5000      0.0100           0
167967          B                  1520.0000      0.0000    181.0000    558.3986      1.0000      0.4230      0.9500      0.5000      0.9500      0.9000      0.0100           0
167957          C                  2000.0000      0.0000    246.6000    391.8919      1.0000      0.6378      0.9500      0.5000      0.9500      0.5000      0.0100           0
168003          C                  1520.0000      0.0000    264.0000    502.4294      1.0000      0.8750      0.9500      0.5000      0.9500      0.5000      0.0100           0
168003          C                  1520.0000      0.0000    264.0000    502.4294      1.0000      0.3545      0.9500      0.5000      0.9500      0.5000      0.0100           0
167999          A                  1520.0000      0.0000    100.2000    547.0575      1.0000      0.5642      0.9500      0.5000      0.9500      0.9000      0.0100           0
167990          A                  1520.0000      0.0000    173.3000    636.2618      1.0000      0.6771      0.9500      0.5000      0.9500      0.9000      0.0100           0
167956          C                  2000.0000      0.0000    249.3000    399.5722      1.0000      0.3064      0.9500      0.5000      0.9500      0.5000      0.0100           0
167997          C                  1520.0000      0.0000    257.7000    327.6769      1.0000      0.9793      0.9500      0.5000      0.9500      0.5000      0.0100           0
168000          A                  1520.0000      0.0000    193.7000    657.1953      1.0000      0.7357      0.9500      0.5000      0.9500      0.9000      0.0100           0
167977          B                  1520.0000      0.0000    194.7000    527.5425      1.0000      0.3523      0.9500      0.5000      0.9500      0.9000      0.0100           0
167967          B                  1520.0000      0.0000    181.0000    558.3986      1.0000      0.6935      0.9500      0.5000      0.9500      0.9000      0.0100           0
167975          C                  2000.0000      0.0000    180.8000    323.4967      1.0000      0.2737      0.9500      0.5000      0.9500      0.5000      0.0100           0
2996484         C                  2000.0000      0.0000    247.1000    362.2018      1.0000      0.3938      0.9500      0.5000      0.9500      0.5000      0.0100           0
167999          A                  1520.0000      0.0000    100.2000    547.0575      1.0000      0.5943      0.9500      0.5000      0.9500      0.9000      0.0100           0
167967          B                  1520.0000      0.0000    181.0000    558.3986      1.0000      0.6510      0.9500      0.5000      0.9500      0.9000      0.0100           0
167990          A                  1520.0000      0.0000    173.3000    636.2618      1.0000      0.6273      0.9500      0.5000      0.9500      0.9000      0.0100           0
168003          C                  1520.0000      0.0000    264.0000    502.4294      1.0000      0.2496      0.9500      0.5000      0.9500      0.5000      0.0100           0
167956          C                  2000.0000      0.0000    249.3000    399.5722      1.0000      0.2814      0.9500      0.5000      0.9500      0.5000      0.0100           0
168000          A                  1520.0000      0.0000    193.7000    657.1953      1.0000      0.7062      0.9500      0.5000      0.9500      0.9000      0.0100           0
167997          C                  1520.0000      0.0000    257.7000    327.6769      1.0000      0.8300      0.9500      0.5000      0.9500      0.5000      0.0100           0
167977          B                  1520.0000      0.0000    194.7000    527.5425      1.0000      0.2841      0.9500      0.5000      0.9500      0.9000      0.0100           0
167975          C                  2000.0000      0.0000    180.8000    323.4967      1.0000      0.5728      0.9500      0.5000      0.9500      0.5000      0.0100           0
167979          C                  1520.0000      0.0000    280.0000    311.6165      1.0000      0.2712      0.9500      0.5000      0.9500      0.5000      0.0100           0
167967          B                  1520.0000      0.0000    181.0000    558.3986      1.0000      0.3931      0.9500      0.5000      0.9500      0.9000      0.0100           0
167956          C                  2000.0000      0.0000    249.3000    399.5722      1.0000      0.2102      0.9500      0.5000      0.9500      0.5000      0.0100           0
167971          C                  1520.0000      0.0000    181.9000    248.1566      1.0000      0.1979      0.9500      0.5000      0.9500      0.5000      0.0100           0
2996484         C                  2000.0000      0.0000    247.1000    362.2018      1.0000      0.4382      0.9500      0.5000      0.9500      0.5000      0.0100           0
167957          C                  2000.0000      0.0000    246.6000    391.8919      1.0000      0.3028      0.9500      0.5000      0.9500      0.5000      0.0100           0
168003          C                  1520.0000      0.0000    264.0000    502.4294      1.0000      0.4077      0.9500      0.5000      0.9500      0.5000      0.0100           0
167990          A                  1520.0000      0.0000    173.3000    636.2618      1.0000      0.7281      0.9500      0.5000      0.9500      0.9000      0.0100           0
167956          C                  2000.0000      0.0000    249.3000    399.5722      1.0000      0.3787      0.9500      0.5000      0.9500      0.5000      0.0100           0
167971          C                  1520.0000      0.0000    181.9000    248.1566      1.0000      0.1808      0.9500      0.5000      0.9500      0.5000      0.0100           0
168000          A                  1520.0000      0.0000    193.7000    657.1953      1.0000      0.6008      0.9500      0.5000      0.9500      0.9000      0.0100           0
167997          C                  1520.0000      0.0000    257.7000    327.6769      1.0000      1.3231      0.9500      0.5000      0.9500      0.5000      0.0100           0
167967          B                  1520.0000      0.0000    181.0000    558.3986      1.0000      0.5508      0.9500      0.5000      0.9500      0.9000      0.0100           0
167983          C                  1520.0000      0.0000    282.1000    520.8279      1.0000      0.6473      0.9500      0.5000      0.9500      0.5000      0.0100           0
2996484         C                  2000.0000      0.0000    247.1000    362.2018      1.0000      0.6498      0.9500      0.5000      0.9500      0.5000      0.0100           0
167989          B                  1520.0000      0.0000    232.3000    577.2755      1.0000      0.4397      0.9500      0.5000      0.9500      0.9000      0.0100           0
167957          C                  2000.0000      0.0000    246.6000    391.8919      1.0000      0.3793      0.9500      0.5000      0.9500      0.5000      0.0100           0
167956          C                  2000.0000      0.0000    249.3000    399.5722      1.0000      0.2766      0.9500      0.5000      0.9500      0.5000      0.0100           0
167971          C                  1520.0000      0.0000    181.9000    248.1566      1.0000      0.2660      0.9500      0.5000      0.9500      0.5000      0.0100           0
167967          B                  1520.0000      0.0000    181.0000    558.3986      1.0000      0.6618      0.9500      0.5000      0.9500      0.9000      0.0100           0
2996484         C                  2000.0000      0.0000    247.1000    362.2018      1.0000      0.4353      0.9500      0.5000      0.9500      0.5000      0.0100           0
167983          C                  1520.0000      0.0000    282.1000    520.8279      1.0000      0.6809      0.9500      0.5000      0.9500      0.5000      0.0100           0
167957          C                  2000.0000      0.0000    246.6000    391.8919      1.0000      0.3715      0.9500      0.5000      0.9500      0.5000      0.0100           0
167989          B                  1520.0000      0.0000    232.3000    577.2755      1.0000      0.2985      0.9500      0.5000      0.9500      0.9000      0.0100           0
167993          C                  1520.0000      0.0000    261.2000    288.9568      1.0000      0.1297      0.9500      0.5000      0.9500      0.5000      0.0100           0
167956          C                  2000.0000      0.0000    249.3000    399.5722      1.0000      0.1804      0.9500      0.5000      0.9500      0.5000      0.0100           0
167973          D                   760.0000      0.0000    123.2000    188.7462      1.0000      0.1044      0.9500      0.5000      0.9500      0.0500      0.0100           0
167990          A                  1520.0000      0.0000    173.3000    636.2618      1.0000      0.3416      0.9500      0.5000      0.9500      0.9000      0.0100           0
167996          C                   660.0000      0.0000    119.1000    193.3720      1.0000      0.2320      0.9500      0.5000      0.9500      0.5000      0.0100           0
167975          C                  2000.0000      0.0000    180.8000    323.4967      1.0000      0.2808      0.9500      0.5000      0.9500      0.5000      0.0100           0
167983          C                  1520.0000      0.0000    282.1000    520.8279      1.0000      0.7198      0.9500      0.5000      0.9500      0.5000      0.0100           0
167990          A                  1520.0000      0.0000    173.3000    636.2618      1.0000      0.6081      0.9500      0.5000      0.9500      0.9000      0.0100           0
167989          B                  1520.0000      0.0000    232.3000    577.2755      1.0000      0.6318      0.9500      0.5000      0.9500      0.9000      0.0100           0
167956          C                  2000.0000      0.0000    249.3000    399.5722      1.0000      0.3960      0.9500      0.5000      0.9500      0.5000      0.0100           0
[...]
170708          C                  1520.0000      0.0000    222.1000    307.5057      1.0000      0.4634      0.9500      0.5000      0.9500      0.5000      0.0100           0
2996711         C                  2000.0000      0.0000    228.6000    336.2271      1.0000      0.7161      0.9500      0.5000      0.9500      0.5000      0.0100           0
170715          A                  1520.0000      0.0000    185.2000    471.1402      1.0000      0.5463      0.9500      0.5000      0.9500      0.9000      0.0100           0
170709          C                  1520.0000      0.0000    222.1000    307.5057      1.0000      0.6135      0.9500      0.5000      0.9500      0.5000      0.0100           0
2996565         C                  2000.0000      0.0000    242.9000    354.9395      1.0000      0.5478      0.9500      0.5000      0.9500      0.5000      0.0100           0
2996480         C                  2000.0000      0.0000    247.1000    362.2018      1.0000      0.9421      0.9500      0.5000      0.9500      0.5000      0.0100           0
170804          B                  2000.0000      0.0000    311.7000    653.0042      1.0000      0.7292      0.9500      0.5000      0.9500      0.9000      0.0100           0
2996711         C                  2000.0000      0.0000    228.6000    336.2271      1.0000      0.7922      0.9500      0.5000      0.9500      0.5000      0.0100           0
170709          C                  1520.0000      0.0000    222.1000    307.5057      1.0000      0.5651      0.9500      0.5000      0.9500      0.5000      0.0100           0
170718          C                  2000.0000      0.0000    249.3000    399.5722      1.0000      0.6485      0.9500      0.5000      0.9500      0.5000      0.0100           0
170804          B                  2000.0000      0.0000    311.7000    653.0042      1.0000      1.2607      0.9500      0.5000      0.9500      0.9000      0.0100           0
2996711         C                  2000.0000      0.0000    228.6000    336.2271      1.0000      0.6587      0.9500      0.5000      0.9500      0.5000      0.0100           0
170709          C                  1520.0000      0.0000    222.1000    307.5057      1.0000      0.8896      0.9500      0.5000      0.9500      0.5000      0.0100           0
170719          C                  2000.0000      0.0000    246.6000    391.8919      1.0000      0.5414      0.9500      0.5000      0.9500      0.5000      0.0100           0
2996480         C                  2000.0000      0.0000    247.1000    362.2018      1.0000      0.5706      0.9500      0.5000      0.9500      0.5000      0.0100           0
2996565         C                  2000.0000      0.0000    242.9000    354.9395      1.0000      0.5673      0.9500      0.5000      0.9500      0.5000      0.0100           0
2996711         C                  2000.0000      0.0000    228.6000    336.2271      1.0000      0.6652      0.9500      0.5000      0.9500      0.5000      0.0100           0
2996480         C                  2000.0000      0.0000    247.1000    362.2018      1.0000      0.7369      0.9500      0.5000      0.9500      0.5000      0.0100           0
170719          C                  2000.0000      0.0000    246.6000    391.8919      1.0000      0.5276      0.9500      0.5000      0.9500      0.5000      0.0100           0
2996552         C                  2000.0000      0.0000    240.3000    346.1899      1.0000      0.5669      0.9500      0.5000      0.9500      0.5000      0.0100           0
170709          C                  1520.0000      0.0000    222.1000    307.5057      1.0000      0.8675      0.9500      0.5000      0.9500      0.5000      0.0100           0
170718          C                  2000.0000      0.0000    249.3000    399.5722      1.0000      0.5518      0.9500      0.5000      0.9500      0.5000      0.0100           0
2996565         C                  2000.0000      0.0000    242.9000    354.9395      1.0000      0.8945      0.9500      0.5000      0.9500      0.5000      0.0100           0
167976          B                  1520.0000      0.0000    253.1000    597.3994      1.0000      0.2124      0.9500      0.5000      0.9500      0.9000      0.0100           0
2996484         C                  2000.0000      0.0000    247.1000    362.2018      1.0000      0.4822      0.9500      0.5000      0.9500      0.5000      0.0100           0
167982          C                  1520.0000      0.0000    282.1000    520.8279      1.0000      0.1795      0.9500      0.5000      0.9500      0.5000      0.0100           0
167971          C                  1520.0000      0.0000    181.9000    248.1566      1.0000      0.2188      0.9500      0.5000      0.9500      0.5000      0.0100           0
167956          C                  2000.0000      0.0000    249.3000    399.5722      1.0000      0.2754      0.9500      0.5000      0.9500      0.5000      0.0100           0
167957          C                  2000.0000      0.0000    246.6000    391.8919      1.0000      0.4696      0.9500      0.5000      0.9500      0.5000      0.0100           0
167976          B                  1520.0000      0.0000    253.1000    597.3994      1.0000      0.1602      0.9500      0.5000      0.9500      0.9000      0.0100           0
167989          B                  1520.0000      0.0000    232.3000    577.2755      1.0000      0.1068      0.9500      0.5000      0.9500      0.9000      0.0100           0
167956          C                  2000.0000      0.0000    249.3000    399.5722      1.0000      0.2995      0.9500      0.5000      0.9500      0.5000      0.0100           0
167976          B                  1520.0000      0.0000    253.1000    597.3994      1.0000      0.1646      0.9500      0.5000      0.9500      0.9000      0.0100           0
167982          C                  1520.0000      0.0000    282.1000    520.8279      1.0000      0.2616      0.9500      0.5000      0.9500      0.5000      0.0100           0
167956          C                  2000.0000      0.0000    249.3000    399.5722      1.0000      0.4055      0.9500      0.5000      0.9500      0.5000      0.0100           0
2996484         C                  2000.0000      0.0000    247.1000    362.2018      1.0000      0.4523      0.9500      0.5000      0.9500      0.5000      0.0100           0
167971          C                  1520.0000      0.0000    181.9000    248.1566      1.0000      0.1618      0.9500      0.5000      0.9500      0.5000      0.0100           0
167957          C                  2000.0000      0.0000    246.6000    391.8919      1.0000      0.3331      0.9500      0.5000      0.9500      0.5000      0.0100           0
167956          C                  2000.0000      0.0000    249.3000    399.5722      1.0000      0.2483      0.9500      0.5000      0.9500      0.5000      0.0100           0
167967          B                  1520.0000      0.0000    181.0000    558.3986      1.0000      0.3713      0.9500      0.5000      0.9500      0.9000      0.0100           0
168003          C                  1520.0000      0.0000    264.0000    502.4294      1.0000      0.2666      0.9500      0.5000      0.9500      0.5000      0.0100           0
167975          C                  2000.0000      0.0000    180.8000    323.4967      1.0000      0.2508      0.9500      0.5000      0.9500      0.5000      0.0100           0
167976          B                  1520.0000      0.0000    253.1000    597.3994      1.0000      0.2440      0.9500      0.5000      0.9500      0.9000      0.0100           0
2996484         C                  2000.0000      0.0000    247.1000    362.2018      1.0000      0.6276      0.9500      0.5000      0.9500      0.5000      0.0100           0
167971          C                  1520.0000      0.0000    181.9000    248.1566      1.0000      0.1919      0.9500      0.5000      0.9500      0.5000      0.0100           0
167956          C                  2000.0000      0.0000    249.3000    399.5722      1.0000      0.3536      0.9500      0.5000      0.9500      0.5000      0.0100           0
167967          B                  1520.0000      0.0000    181.0000    558.3986      1.0000      0.6094      0.9500      0.5000      0.9500      0.9000      0.0100           0
168003          C                  1520.0000      0.0000    264.0000    502.4294      1.0000      0.6373      0.9500      0.5000      0.9500      0.5000      0.0100           0
167976          B                  1520.0000      0.0000    253.1000    597.3994      1.0000      0.3055      0.9500      0.5000      0.9500      0.9000      0.0100           0
167983          C                  1520.0000      0.0000    282.1000    520.8279      1.0000      0.4246      0.9500      0.5000      0.9500      0.5000      0.0100           0
167957          C                  2000.0000      0.0000    246.6000    391.8919      1.0000      0.2149      0.9500      0.5000      0.9500      0.5000      0.0100           0
167971          C                  1520.0000      0.0000    181.9000    248.1566      1.0000      0.2420      0.9500      0.5000      0.9500      0.5000      0.0100           0
167956          C                  2000.0000      0.0000    249.3000    399.5722      1.0000      0.3356      0.9500      0.5000      0.9500      0.5000      0.0100           0
2996484         C                  2000.0000      0.0000    247.1000    362.2018      1.0000      0.4297      0.9500      0.5000      0.9500      0.5000      0.0100           0
167976          B                  1520.0000      0.0000    253.1000    597.3994      1.0000      0.2222      0.9500      0.5000      0.9500      0.9000      0.0100           0
167983          C                  1520.0000      0.0000    282.1000    520.8279      1.0000      0.4293      0.9500      0.5000      0.9500      0.5000      0.0100           0
167956          C                  2000.0000      0.0000    249.3000    399.5722      1.0000      0.2489      0.9500      0.5000      0.9500      0.5000      0.0100           0
2996484         C                  2000.0000      0.0000    247.1000    362.2018      1.0000      0.5308      0.9500      0.5000      0.9500      0.5000      0.0100           0
2996699         C                  2000.0000      0.0000    228.6000    336.2271      1.0000      0.6241      0.9500      0.5000      0.9500      0.5000      0.0100           0
167957          C                  2000.0000      0.0000    246.6000    391.8919      1.0000      0.4381      0.9500      0.5000      0.9500      0.5000      0.0100           0
170719          C                  2000.0000      0.0000    246.6000    391.8919      1.0000      0.4747      0.9500      0.5000      0.9500      0.5000      0.0100           0
2996480         C                  2000.0000      0.0000    247.1000    362.2018      1.0000      0.6079      0.9500      0.5000      0.9500      0.5000      0.0100           0
170789          C                  2000.0000      0.0000    259.8000    368.5616      1.0000      0.2971      0.9500      0.5000      0.9500      0.5000      0.0100           0
2996711         C                  2000.0000      0.0000    228.6000    336.2271      1.0000      0.6525      0.9500      0.5000      0.9500      0.5000      0.0100           0
167956          C                  2000.0000      0.0000    249.3000    399.5722      1.0000      0.3930      0.9500      0.5000      0.9500      0.5000      0.0100           0
2996484         C                  2000.0000      0.0000    247.1000    362.2018      1.0000      0.7029      0.9500      0.5000      0.9500      0.5000      0.0100           0
2996699         C                  2000.0000      0.0000    228.6000    336.2271      1.0000      0.5835      0.9500      0.5000      0.9500      0.5000      0.0100           0
167955          C                  1520.0000      0.0000    187.4000    242.7808      1.0000      0.8042      0.9500      0.5000      0.9500      0.5000      0.0100           0
167983          C                  1520.0000      0.0000    282.1000    520.8279      1.0000      0.7296      0.9500      0.5000      0.9500      0.5000      0.0100           0
167967          B                  1520.0000      0.0000    181.0000    558.3986      1.0000      0.5576      0.9500      0.5000      0.9500      0.9000      0.0100           0
167957          C                  2000.0000      0.0000    246.6000    391.8919      1.0000      0.6051      0.9500      0.5000      0.9500      0.5000      0.0100           0
1605965         B                  2000.0000      0.0000    311.7000    653.0042      1.0000      0.6688      0.9500      0.5000      0.9500      0.9000      0.0100           0
170708          C                  1520.0000      0.0000    222.1000    307.5057      1.0000      0.6543      0.9500      0.5000      0.9500      0.5000      0.0100           0
170719          C                  2000.0000      0.0000    246.6000    391.8919      1.0000      0.4982      0.9500      0.5000      0.9500      0.5000      0.0100           0
170804          B                  2000.0000      0.0000    311.7000    653.0042      1.0000      0.7305      0.9500      0.5000      0.9500      0.9000      0.0100           0
167956          C                  2000.0000      0.0000    249.3000    399.5722      1.0000      0.3509      0.9500      0.5000      0.9500      0.5000      0.0100           0
2996484         C                  2000.0000      0.0000    247.1000    362.2018      1.0000      0.5897      0.9500      0.5000      0.9500      0.5000      0.0100           0
2996699         C                  2000.0000      0.0000    228.6000    336.2271      1.0000      0.8417      0.9500      0.5000      0.9500      0.5000      0.0100           0
167967          B                  1520.0000      0.0000    181.0000    558.3986      1.0000      0.6508      0.9500      0.5000      0.9500      0.9000      0.0100           0
167983          C                  1520.0000      0.0000    282.1000    520.8279      1.0000      0.7232      0.9500      0.5000      0.9500      0.5000      0.0100           0
167957          C                  2000.0000      0.0000    246.6000    391.8919      1.0000      0.3485      0.9500      0.5000      0.9500      0.5000      0.0100           0
1605965         B                  2000.0000      0.0000    311.7000    653.0042      1.0000      0.5763      0.9500      0.5000      0.9500      0.9000      0.0100           0
2996560         C                  2000.0000      0.0000    242.9000    354.9395      1.0000      0.9365      0.9500      0.5000      0.9500      0.5000      0.0100           0
170719          C                  2000.0000      0.0000    246.6000    391.8919      1.0000      0.6134      0.9500      0.5000      0.9500      0.5000      0.0100           0
2996480         C                  2000.0000      0.0000    247.1000    362.2018      1.0000      0.6655      0.9500      0.5000      0.9500      0.5000      0.0100           0
167989          B                  1520.0000      0.0000    232.3000    577.2755      1.0000      0.7249      0.9500      0.5000      0.9500      0.9000      0.0100           0
167967          B                  1520.0000      0.0000    181.0000    558.3986      1.0000      0.8318      0.9500      0.5000      0.9500      0.9000      0.0100           0
168000          A                  1520.0000      0.0000    193.7000    657.1953      1.0000      0.6526      0.9500      0.5000      0.9500      0.9000      0.0100           0
167983          C                  1520.0000      0.0000    282.1000    520.8279      1.0000      0.7148      0.9500      0.5000      0.9500      0.5000      0.0100           0
167975          C                  2000.0000      0.0000    180.8000    323.4967      1.0000      0.4739      0.9500      0.5000      0.9500      0.5000      0.0100           0
2996484         C                  2000.0000      0.0000    247.1000    362.2018      1.0000      0.7487      0.9500      0.5000      0.9500      0.5000      0.0100           0
167956          C                  2000.0000      0.0000    249.3000    399.5722      1.0000      0.4339      0.9500      0.5000      0.9500      0.5000      0.0100           0
167957          C                  2000.0000      0.0000    246.6000    391.8919      1.0000      0.4963      0.9500      0.5000      0.9500      0.5000      0.0100           0
2996699         C                  2000.0000      0.0000    228.6000    336.2271      1.0000      0.9491      0.9500      0.5000      0.9500      0.5000      0.0100           0
167955          C                  1520.0000      0.0000    187.4000    242.7808      1.0000      0.7526      0.9500      0.5000      0.9500      0.5000      0.0100           0
167967          B                  1520.0000      0.0000    181.0000    558.3986      1.0000      0.4537      0.9500      0.5000      0.9500      0.9000      0.0100           0
167977          B                  1520.0000      0.0000    194.7000    527.5425      1.0000      0.1688      0.9500      0.5000      0.9500      0.9000      0.0100           0
167983          C                  1520.0000      0.0000    282.1000    520.8279      1.0000      0.3883      0.9500      0.5000      0.9500      0.5000      0.0100           0
168000          A                  1520.0000      0.0000    193.7000    657.1953      1.0000      0.4364      0.9500      0.5000      0.9500      0.9000      0.0100           0
2996484         C                  2000.0000      0.0000    247.1000    362.2018      1.0000      0.5374      0.9500      0.5000      0.9500      0.5000      0.0100           0
167956          C                  2000.0000      0.0000    249.3000    399.5722      1.0000      0.2841      0.9500      0.5000      0.9500      0.5000      0.0100           0
167957          C                  2000.0000      0.0000    246.6000    391.8919      1.0000      0.4029      0.9500      0.5000      0.9500      0.5000      0.0100           0
167975          C                  2000.0000      0.0000    180.8000    323.4967      1.0000      0.4500      0.9500      0.5000      0.9500      0.5000      0.0100           0
2996699         C                  2000.0000      0.0000    228.6000    336.2271      1.0000      0.7059      0.9500      0.5000      0.9500      0.5000      0.0100           0
167967          B                  1520.0000      0.0000    181.0000    558.3986      1.0000      0.6638      0.9500      0.5000      0.9500      0.9000      0.0100           0
168004          C                  1520.0000      0.0000    264.0000    502.4294      1.0000      0.6598      0.9500      0.5000      0.9500      0.5000      0.0100           0
2996699         C                  2000.0000      0.0000    228.6000    336.2271      1.0000      0.9065      0.9500      0.5000      0.9500      0.5000      0.0100           0
2996484         C                  2000.0000      0.0000    247.1000    362.2018      1.0000      0.6248      0.9500      0.5000      0.9500      0.5000      0.0100           0
167956          C                  2000.0000      0.0000    249.3000    399.5722      1.0000      0.3072      0.9500      0.5000      0.9500      0.5000      0.0100           0
168000          A                  1520.0000      0.0000    193.7000    657.1953      1.0000      0.5916      0.9500      0.5000      0.9500      0.9000      0.0100           0
167957          C                  2000.0000      0.0000    246.6000    391.8919      1.0000      0.3909      0.9500      0.5000      0.9500      0.5000      0.0100           0
2996560         C                  2000.0000      0.0000    242.9000    354.9395      1.0000      0.6400      0.9500      0.5000      0.9500      0.5000      0.0100           0
